*** SPICE deck for cell Skalansky32{lay} from library ProyectoIntegrador
*** Created on sáb oct 25, 2014 17:52:49
*** Last revised on sáb oct 25, 2014 20:45:47
*** Written on sáb oct 25, 2014 20:47:42 by Electric VLSI Design System, 
*** version 9.05
*** Layout tech: mocmos, foundry MOSIS
*** UC SPICE *** , MIN_RESIST 0.5, MIN_CAPAC 0.5FF
***    P-Active:	areacap=1.167FF/um^2,	edgecap=0.203FF/um,	res=7.5ohms/sq
***    N-Active:	areacap=0.982FF/um^2,	edgecap=0.244FF/um,	res=6.7ohms/sq
***    
*** Polysilicon-1:	areacap=0.1467FF/um^2,	edgecap=0.0608FF/um,	res=7.8ohms/sq
***    Transistor-Poly:	areacap=0.09FF/um^2,	edgecap=0.0FF/um,	res=2.5ohms/sq
***    Poly-Cut:	areacap=0.0FF/um^2,	edgecap=0.0FF/um,	res=10.5ohms/sq
***    Active-Cut:	areacap=0.0FF/um^2,	edgecap=0.0FF/um,	res=12.2ohms/sq
***    Metal-1:	areacap=0.1209FF/um^2,	edgecap=0.1104FF/um,	res=0.08ohms/sq
***    Via1:	areacap=0.0FF/um^2,	edgecap=0.0FF/um,	res=5.69ohms/sq
***    Metal-2:	areacap=0.0843FF/um^2,	edgecap=0.0974FF/um,	res=0.08ohms/sq
***    Via2:	areacap=0.0FF/um^2,	edgecap=0.0FF/um,	res=11.39ohms/sq
***    Metal-3:	areacap=0.0843FF/um^2,	edgecap=0.0974FF/um,	res=0.08ohms/sq
***    Via3:	areacap=0.0FF/um^2,	edgecap=0.0FF/um,	res=16.73ohms/sq
***    Metal-4:	areacap=0.0843FF/um^2,	edgecap=0.0974FF/um,	res=0.08ohms/sq
***    Via4:	areacap=0.0FF/um^2,	edgecap=0.0FF/um,	res=21.44ohms/sq
***    Metal-5:	areacap=0.0843FF/um^2,	edgecap=0.0974FF/um,	res=0.07ohms/sq
***    Via5:	areacap=0.0FF/um^2,	edgecap=0.0FF/um,	res=24.08ohms/sq
***    Metal-6:	areacap=0.0423FF/um^2,	edgecap=0.1273FF/um,	res=0.03ohms/sq
***    Hi-Res:	areacap=0.0FF/um^2,	edgecap=0.0FF/um,	res=1.0ohms/sq
* Model cards are described in this file:
.include /home/lean/tfinal/trabajo/models/tsmc180nm.model

*** SUBCIRCUIT ProyectoIntegrador__id FROM CELL id{lay}
.SUBCKT ProyectoIntegrador__id vss a vdd y
Mnmos_0 net_10 a#1 0 0 N L=0.2U W=0.4U AS=0.6P AD=0.3P PS=5.8U PD=2.2U
Mnmos_1 y#0 net_10#6 0 0 N L=0.2U W=0.4U AS=0.6P AD=0.3P PS=5.8U PD=2.2U
Mpmos_0 net_10#2 a#5 vdd vdd P L=0.2U W=0.8U AS=0.8P AD=0.3P PS=6.6U PD=2.2U
Mpmos_1 y#2 net_10#10 vdd vdd P L=0.2U W=0.8U AS=0.8P AD=0.3P PS=6.6U PD=2.2U
** Extracted Parasitic Capacitors ***
C0 net_10 0 0.649fF
C1 net_10#2 0 0.623fF
C2 y#0 0 0.546fF
C3 y#2 0 0.726fF
C4 net_10#4 0 1.495fF
C5 y 0 1.272fF
C6 a#3 0 0.66fF
C7 net_10#8 0 0.66fF
** Extracted Parasitic Resistors ***
R0 a#1 a#2 15.6
R1 a#3 a#2 181.35
R2 a#4 a#3 157.95
R3 a a#3 1.95
R4 a#5 a#4 15.6
R5 net_10#6 net_10#7 15.6
R6 net_10#8 net_10#7 181.35
R7 net_10#9 net_10#8 157.95
R8 net_10#4 net_10#8 1.95
R9 net_10#10 net_10#9 15.6
R10 y#2 y 1.507
R11 net_10#2 net_10#4 1.293
R12 net_10#4 net_10 1.347
R13 y#0 y 1.133
.ENDS ProyectoIntegrador__id

*** SUBCIRCUIT ProyectoIntegrador__xor2_1x FROM CELL xor2_1x{lay}
.SUBCKT ProyectoIntegrador__xor2_1x vss a b vdd y
Mnmos_0 net_79 a#9 0 0 N L=0.2U W=0.4U AS=0.44P AD=0.088P PS=4.2U PD=0.85U
Mnmos_1 net_76 net_160#11 y#0 0 N L=0.2U W=0.4U AS=0.18P AD=0.088P PS=1.2U 
+PD=0.85U
Mnmos_2 0 net_270#10 net_76 0 N L=0.2U W=0.4U AS=0.088P AD=0.44P PS=0.85U 
+PD=4.2U
Mnmos_3 y#0 b#5 net_79 0 N L=0.2U W=0.4U AS=0.088P AD=0.18P PS=0.85U PD=1.2U
Mnmos_4 net_160#12 b#0 0 0 N L=0.2U W=0.4U AS=0.44P AD=0.28P PS=4.2U PD=2.2U
Mnmos_5 0 a#5 net_270#2 0 N L=0.2U W=0.4U AS=0.28P AD=0.44P PS=2.2U PD=4.2U
Mpmos_0 net_68 net_270#12 vdd vdd P L=0.2U W=0.8U AS=0.56P AD=0.168P PS=4.6U 
+PD=1.25U
Mpmos_1 y b#11 net_68 vdd P L=0.2U W=0.8U AS=0.168P AD=0.18P PS=1.25U PD=1.2U
Mpmos_2 net_70 net_160#5 y vdd P L=0.2U W=0.8U AS=0.18P AD=0.168P PS=1.2U 
+PD=1.25U
Mpmos_4 vdd a#12 net_70 vdd P L=0.2U W=0.8U AS=0.168P AD=0.56P PS=1.25U 
+PD=4.6U
Mpmos_5 vdd a#1 net_270 vdd P L=0.2U W=0.8U AS=0.28P AD=0.56P PS=2.2U PD=4.6U
Mpmos_6 net_160 b#13 vdd vdd P L=0.2U W=0.8U AS=0.56P AD=0.28P PS=4.6U 
+PD=2.2U
** Extracted Parasitic Capacitors ***
C0 y#0 0 1.163fF
C1 y 0 1.06fF
C2 a#0 0 0.628fF
C3 net_160#12 0 0.594fF
C4 net_160 0 0.697fF
C5 a 0 1.269fF
C6 b 0 0.563fF
C7 net_270 0 1.519fF
C8 net_270#1 0 1.247fF
C9 net_160#2 0 1.362fF
C10 net_270#4 0 0.653fF
C11 b#2 0 0.66fF
C12 b#8 0 0.509fF
** Extracted Parasitic Resistors ***
R0 y y#0 2.413
R1 a#0 a 0.76
R2 a#1 a#2 15.6
R3 a#2 a#2##0 111.15
R4 a#2##0 a 111.15
R5 a#4 a#5 15.6
R6 a a#4 117
R7 b#0 b#1 31.2
R8 b#1 b#2 183.3
R9 b#2 b#4 156
R10 b b#2 1.95
R11 net_270 net_270#1 1.107
R12 net_270#1 net_270#2 0.653
R13 net_160#2 net_160 1.44
R14 net_160#2 net_160#4 0.6
R15 net_270#3 net_270#4 68.25
R16 net_270#7 net_270 1.95
R17 net_270#1 net_270#4 1.08
R18 a#0 a#0##0 101.4
R19 a#0##0 a#8 101.4
R20 b#5 b#6 39
R21 b#6 b#7 7.8
R22 b#7 b#8 142.35
R23 b#9 b#10 7.8
R24 b#10 b#11 39
R25 net_160#5 net_160#6 58.5
R26 net_160#6 net_160#7 7.8
R27 net_160#7 net_160#8 130.65
R28 net_160#9 net_160#10 7.8
R29 net_160#10 net_160#11 58.5
R30 b b#12 0.547
R31 b#8 b#9 118.95
R32 b#12 b#8 1.95
R33 net_160#8 net_160#9 91.65
R34 net_160#4 net_160#8 1.95
R35 net_160#12 net_160#2 1.16
R36 net_270#10 net_270#11 19.5
R37 net_270#11 net_270#3 31.2
R38 a#9 a#10 19.5
R39 a#10 a#11 15.6
R40 a#11 a 101.4
R41 net_270#12 net_270#13 19.5
R42 net_270#13 net_270#14 15.6
R43 net_270#14 net_270 76.05
R44 a#12 a#13 19.5
R45 a#13 a#8 15.6
R46 b#13 b#4 31.2
.ENDS ProyectoIntegrador__xor2_1x

*** SUBCIRCUIT ProyectoIntegrador__and2_1x FROM CELL and2_1x{lay}
.SUBCKT ProyectoIntegrador__and2_1x vss a b vdd y
Mnmos_0 net_121 b#7 net_149 0 N L=0.2U W=0.4U AS=0.088P AD=0.227P PS=0.85U 
+PD=1.533U
Mnmos_1 net_149 a#5 0 0 N L=0.2U W=0.4U AS=0.68P AD=0.088P PS=6.6U PD=0.85U
Mnmos_2 y#0 net_121#13 0 0 N L=0.2U W=0.4U AS=0.68P AD=0.3P PS=6.6U PD=2.2U
Mpmos_0 vdd b#1 net_121#2 vdd P L=0.2U W=0.8U AS=0.227P AD=0.693P PS=1.533U 
+PD=5.8U
Mpmos_1 net_121#2 a#1 vdd vdd P L=0.2U W=0.8U AS=0.693P AD=0.227P PS=5.8U 
+PD=1.533U
Mpmos_2 y#2 net_121#7 vdd vdd P L=0.2U W=0.8U AS=0.693P AD=0.3P PS=5.8U 
+PD=2.2U
** Extracted Parasitic Capacitors ***
C0 net_121 0 0.797fF
C1 net_121#2 0 0.501fF
C2 y#0 0 0.546fF
C3 y#2 0 0.726fF
C4 y 0 1.272fF
C5 net_121#3 0 2.178fF
C6 b#4 0 0.585fF
** Extracted Parasitic Resistors ***
R0 a#1 a#2 15.6
R1 a#2 a#2##0 125.775
R2 a#2##0 a#3 125.775
R3 b#1 b#2 19.5
R4 b#2 b#3 15.6
R5 b#3 b#4 140.4
R6 b#5 b#6 7.8
R7 b#6 b#7 19.5
R8 b#4 b#5 159.9
R9 b b#4 1.95
R10 a#3 a#4 87.75
R11 a#3 a 1.95
R12 a#4 a#5 15.6
R13 net_121#2 net_121#3 1.04
R14 y#2 y 1.507
R15 y y#0 1.133
R16 net_121#7 net_121#8 15.6
R17 net_121#3 net_121 1.547
R18 net_121#11 net_121#11##0 106.275
R19 net_121#11##0 net_121#3 106.275
R20 net_121#3 net_121#8 126.75
R21 net_121#11 net_121#13 15.6
.ENDS ProyectoIntegrador__and2_1x

*** SUBCIRCUIT ProyectoIntegrador__or2_1x FROM CELL or2_1x{lay}
.SUBCKT ProyectoIntegrador__or2_1x vss a b vdd y
Mnmos_0 net_56#2 a#1 0 0 N L=0.2U W=0.4U AS=0.52P AD=0.2P PS=5U PD=1.533U
Mnmos_1 0 b#3 net_56#2 0 N L=0.2U W=0.4U AS=0.2P AD=0.52P PS=1.533U PD=5U
Mnmos_2 y#0 net_56#9 0 0 N L=0.2U W=0.4U AS=0.52P AD=0.28P PS=5U PD=2.2U
Mpmos_0 net_55 a#3 vdd vdd P L=0.2U W=0.8U AS=0.84P AD=0.168P PS=7.4U 
+PD=1.25U
Mpmos_1 net_56 b#1 net_55 vdd P L=0.2U W=0.8U AS=0.168P AD=0.2P PS=1.25U 
+PD=1.533U
Mpmos_2 y#2 net_56#14 vdd vdd P L=0.2U W=0.8U AS=0.84P AD=0.28P PS=7.4U 
+PD=2.2U
** Extracted Parasitic Capacitors ***
C0 net_56 0 0.662fF
C1 y#0 0 0.546fF
C2 y#2 0 0.707fF
C3 net_56#13 0 1.09fF
C4 y 0 1.253fF
C5 net_56#6 0 0.848fF
C6 net_56#11 0 0.66fF
** Extracted Parasitic Resistors ***
R0 a#1 a#2 15.6
R1 a#3 a#4 15.6
R2 a#4 a#5 64.35
R3 b#1 b#2 23.4
R4 b#3 b#4 19.5
R5 b#2 b#5 7.8
R6 b#5 b#6 70.2
R7 b#7 b#4 15.6
R8 a#5 a#5##0 137.475
R9 a#5##0 a#2 137.475
R10 a#5 a 1.95
R11 b#6 b#6##0 113.1
R12 b#6##0 b#7 113.1
R13 b#6 b 1.95
R14 net_56#2 net_56#6 0.693
R15 net_56#9 net_56#10 15.6
R16 net_56#11 net_56#10 181.35
R17 net_56#12 net_56#11 157.95
R18 net_56#13 net_56#11 1.95
R19 y#2 y 1.467
R20 y y#0 1.133
R21 net_56#14 net_56#12 15.6
R22 net_56#6 net_56#13 0.64
R23 net_56#13 net_56 1.24
.ENDS ProyectoIntegrador__or2_1x

*** TOP LEVEL CELL: Skalansky32{lay}
Xc_cout 0 net_810 vdd cout#0 ProyectoIntegrador__id
Xc_sum0 0 net_75#2 vdd sum0#0 ProyectoIntegrador__id
Xc_sum1 0 net_72#2 vdd sum1#0 ProyectoIntegrador__id
Xc_sum2 0 net_18 vdd sum2#0 ProyectoIntegrador__id
Xc_sum3 0 net_62#2 vdd sum3#0 ProyectoIntegrador__id
Xc_sum4 0 net_4 vdd sum4#0 ProyectoIntegrador__id
Xc_sum5 0 net_205 vdd sum5#0 ProyectoIntegrador__id
Xc_sum6 0 net_121 vdd sum6#0 ProyectoIntegrador__id
Xc_sum7 0 net_10#2 vdd sum7#0 ProyectoIntegrador__id
Xc_sum8 0 net_153#2 vdd sum8#0 ProyectoIntegrador__id
Xc_sum9 0 net_323#2 vdd sum9#0 ProyectoIntegrador__id
Xc_sum10 0 net_267#2 vdd sum10#0 ProyectoIntegrador__id
Xc_sum11 0 net_260#2 vdd sum11#0 ProyectoIntegrador__id
Xc_sum12 0 net_315#2 vdd sum12#0 ProyectoIntegrador__id
Xc_sum13 0 net_351 vdd sum13#0 ProyectoIntegrador__id
Xc_sum14 0 net_296 vdd sum14#0 ProyectoIntegrador__id
Xc_sum15 0 net_311 vdd sum15#0 ProyectoIntegrador__id
Xc_sum16 0 net_705#2 vdd sum16#0 ProyectoIntegrador__id
Xc_sum17 0 net_954#2 vdd sum17#0 ProyectoIntegrador__id
Xc_sum18 0 net_961#2 vdd sum18#0 ProyectoIntegrador__id
Xc_sum19 0 net_823 vdd sum19#0 ProyectoIntegrador__id
Xc_sum20 0 net_914#2 vdd sum20#0 ProyectoIntegrador__id
Xc_sum21 0 net_1000#2 vdd sum21#0 ProyectoIntegrador__id
Xc_sum22 0 net_840#2 vdd sum22#0 ProyectoIntegrador__id
Xc_sum23 0 net_694 vdd sum23#0 ProyectoIntegrador__id
Xc_sum24 0 net_486#2 vdd sum24#0 ProyectoIntegrador__id
Xc_sum25 0 net_546#2 vdd sum25#0 ProyectoIntegrador__id
Xc_sum26 0 net_787 vdd sum26#0 ProyectoIntegrador__id
Xc_sum27 0 net_609#2 vdd sum27#0 ProyectoIntegrador__id
Xc_sum28 0 net_522#2 vdd sum28#0 ProyectoIntegrador__id
Xc_sum29 0 net_727 vdd sum29#0 ProyectoIntegrador__id
Xc_sum30 0 net_652#2 vdd sum30#0 ProyectoIntegrador__id
Xc_sum31 0 net_554#2 vdd sum31#0 ProyectoIntegrador__id
Xc_w1 0 net_77#4 net_106#4 vdd net_75 ProyectoIntegrador__xor2_1x
Xc_w2 0 a0#0 vdd net_77 ProyectoIntegrador__id
Xc_w3 0 b0#0 vdd net_106 ProyectoIntegrador__id
Xc_w4 0 net_44#2 net_103 vdd net_72 ProyectoIntegrador__xor2_1x
Xc_w5 0 net_77#2 net_106#2 vdd net_44 ProyectoIntegrador__and2_1x
Xc_w6 0 net_68 net_100 vdd net_103#4 ProyectoIntegrador__xor2_1x
Xc_w7 0 a1#0 vdd net_68#4 ProyectoIntegrador__id
Xc_w8 0 b1#0 vdd net_100#4 ProyectoIntegrador__id
Xc_w9 0 net_128 net_95 vdd net_18#2 ProyectoIntegrador__xor2_1x
Xc_w10 0 net_119#2 net_42#2 vdd net_128#4 ProyectoIntegrador__or2_1x
Xc_w11 0 net_68#2 net_100#2 vdd net_119 ProyectoIntegrador__and2_1x
Xc_w12 0 net_103#2 net_44#4 vdd net_42 ProyectoIntegrador__and2_1x
Xc_w13 0 net_114 net_125 vdd net_95#6 ProyectoIntegrador__xor2_1x
Xc_w14 0 a2#0 vdd net_114#4 ProyectoIntegrador__id
Xc_w15 0 b2#0 vdd net_125#4 ProyectoIntegrador__id
Xc_w16 0 net_64#2 net_38#4 vdd net_62 ProyectoIntegrador__xor2_1x
Xc_w17 0 net_92#2 net_66#2 vdd net_64 ProyectoIntegrador__or2_1x
Xc_w18 0 net_114#2 net_125#2 vdd net_92 ProyectoIntegrador__and2_1x
Xc_w19 0 net_95#2 net_128#2 vdd net_66 ProyectoIntegrador__and2_1x
Xc_w20 0 net_58 net_35 vdd net_38#6 ProyectoIntegrador__xor2_1x
Xc_w21 0 a3#0 vdd net_58#4 ProyectoIntegrador__id
Xc_w22 0 b3#0 vdd net_35#4 ProyectoIntegrador__id
Xc_w23 0 net_26#2 net_263 vdd net_4#2 ProyectoIntegrador__xor2_1x
Xc_w24 0 net_32#2 net_16#2 vdd net_26 ProyectoIntegrador__or2_1x
Xc_w25 0 net_112#2 net_90#2 vdd net_32 ProyectoIntegrador__or2_1x
Xc_w26 0 net_58#2 net_35#2 vdd net_112 ProyectoIntegrador__and2_1x
Xc_w27 0 net_38#2 net_92#4 vdd net_90 ProyectoIntegrador__and2_1x
Xc_w28 0 net_117 net_128#6 vdd net_16 ProyectoIntegrador__and2_1x
Xc_w29 0 net_38 net_95#4 vdd net_117#2 ProyectoIntegrador__and2_1x
Xc_w30 0 net_207#4 net_213#4 vdd net_263#6 ProyectoIntegrador__xor2_1x
Xc_w31 0 a4#0 vdd net_207 ProyectoIntegrador__id
Xc_w32 0 b4#0 vdd net_213 ProyectoIntegrador__id
Xc_w33 0 net_203 net_252#2 vdd net_205#2 ProyectoIntegrador__xor2_1x
Xc_w34 0 net_140#2 net_161#2 vdd net_203#2 ProyectoIntegrador__or2_1x
Xc_w35 0 net_207#2 net_213#2 vdd net_140 ProyectoIntegrador__and2_1x
Xc_w36 0 net_263#2 net_26#4 vdd net_161 ProyectoIntegrador__and2_1x
Xc_w37 0 net_156 net_137#2 vdd net_252#6 ProyectoIntegrador__xor2_1x
Xc_w38 0 a5#0 vdd net_156#4 ProyectoIntegrador__id
Xc_w39 0 b5#0 vdd net_137 ProyectoIntegrador__id
Xc_w40 0 net_84 net_227#6 vdd net_121#2 ProyectoIntegrador__xor2_1x
Xc_w41 0 net_21 net_133#2 vdd net_84#2 ProyectoIntegrador__or2_1x
Xc_w42 0 net_225 net_159#2 vdd net_21#6 ProyectoIntegrador__or2_1x
Xc_w43 0 net_156#2 net_137#4 vdd net_225#2 ProyectoIntegrador__and2_1x
Xc_w44 0 net_252#4 net_140#4 vdd net_159 ProyectoIntegrador__and2_1x
Xc_w45 0 net_54#4 net_26#10 vdd net_133 ProyectoIntegrador__and2_1x
Xc_w46 0 net_252 net_263#4 vdd net_54#2 ProyectoIntegrador__and2_1x
Xc_w47 0 net_143#4 net_190#4 vdd net_227#4 ProyectoIntegrador__xor2_1x
Xc_w48 0 a6#0 vdd net_143 ProyectoIntegrador__id
Xc_w49 0 b6#0 vdd net_190 ProyectoIntegrador__id
Xc_w50 0 net_12#2 net_50#2 vdd net_10 ProyectoIntegrador__xor2_1x
Xc_w51 0 net_2 net_14#2 vdd net_12 ProyectoIntegrador__or2_1x
Xc_w52 0 net_239#2 net_82#2 vdd net_2#2 ProyectoIntegrador__or2_1x
Xc_w53 0 net_143#2 net_190#2 vdd net_239 ProyectoIntegrador__and2_1x
Xc_w54 0 net_227#8 net_21#2 vdd net_82 ProyectoIntegrador__and2_1x
Xc_w55 0 net_88 net_26#6 vdd net_14 ProyectoIntegrador__and2_1x
Xc_w56 0 net_227 net_54 vdd net_88#2 ProyectoIntegrador__and2_1x
Xc_w57 0 net_236 net_249 vdd net_50#6 ProyectoIntegrador__xor2_1x
Xc_w58 0 a7#0 vdd net_236#2 ProyectoIntegrador__id
Xc_w59 0 b7#0 vdd net_249#2 ProyectoIntegrador__id
Xc_w60 0 net_301#4 net_284#2 vdd net_153#5 ProyectoIntegrador__xor2_1x
Xc_w61 0 net_187#5 net_210#5 vdd net_301#16 ProyectoIntegrador__or2_1x
Xc_w62 0 net_7 net_80#2 vdd net_187#2 ProyectoIntegrador__or2_1x
Xc_w63 0 net_223 net_0#2 vdd net_7#2 ProyectoIntegrador__or2_1x
Xc_w64 0 net_236#4 net_249#4 vdd net_223#2 ProyectoIntegrador__and2_1x
Xc_w65 0 net_50#4 net_239#4 vdd net_0 ProyectoIntegrador__and2_1x
Xc_w66 0 net_109#4 net_21#4 vdd net_80 ProyectoIntegrador__and2_1x
Xc_w67 0 net_50 net_227#2 vdd net_109#2 ProyectoIntegrador__and2_1x
Xc_w68 0 net_86 net_26#8 vdd net_210#2 ProyectoIntegrador__and2_1x
Xc_w69 0 net_109 net_54#6 vdd net_86#2 ProyectoIntegrador__and2_1x
Xc_w70 0 net_503 net_540 vdd net_284#6 ProyectoIntegrador__xor2_1x
Xc_w71 0 a8#0 vdd net_503#4 ProyectoIntegrador__id
Xc_w72 0 b8#0 vdd net_540#4 ProyectoIntegrador__id
Xc_w73 0 net_325#2 net_292#6 vdd net_323 ProyectoIntegrador__xor2_1x
Xc_w74 0 net_382#2 net_331#2 vdd net_325 ProyectoIntegrador__or2_1x
Xc_w75 0 net_503#2 net_540#2 vdd net_382#4 ProyectoIntegrador__and2_1x
Xc_w76 0 net_284#4 net_301#6 vdd net_331 ProyectoIntegrador__and2_1x
Xc_w77 0 net_402#4 net_385#2 vdd net_292#2 ProyectoIntegrador__xor2_1x
Xc_w78 0 a9#0 vdd net_402 ProyectoIntegrador__id
Xc_w79 0 b9#0 vdd net_385#4 ProyectoIntegrador__id
Xc_w80 0 net_256#2 net_421#6 vdd net_267 ProyectoIntegrador__xor2_1x
Xc_w81 0 net_426#2 net_355 vdd net_256 ProyectoIntegrador__or2_1x
Xc_w82 0 net_336 net_327 vdd net_426#6 ProyectoIntegrador__or2_1x
Xc_w83 0 net_402#2 net_385 vdd net_336#2 ProyectoIntegrador__and2_1x
Xc_w84 0 net_292#4 net_382 vdd net_327#2 ProyectoIntegrador__and2_1x
Xc_w85 0 net_467#6 net_301#10 vdd net_355#2 ProyectoIntegrador__and2_1x
Xc_w86 0 net_292 net_284 vdd net_467#4 ProyectoIntegrador__and2_1x
Xc_w87 0 net_219#2 net_242#2 vdd net_421#8 ProyectoIntegrador__xor2_1x
Xc_w88 0 a10#0 vdd net_219#4 ProyectoIntegrador__id
Xc_w89 0 b10#0 vdd net_242#4 ProyectoIntegrador__id
Xc_w90 0 net_440 net_346#4 vdd net_260 ProyectoIntegrador__xor2_1x
Xc_w91 0 net_333 net_430 vdd net_440#2 ProyectoIntegrador__or2_1x
Xc_w92 0 net_245#2 net_258 vdd net_333#2 ProyectoIntegrador__or2_1x
Xc_w93 0 net_219 net_242 vdd net_245#4 ProyectoIntegrador__and2_1x
Xc_w94 0 net_421#4 net_426 vdd net_258#2 ProyectoIntegrador__and2_1x
Xc_w95 0 net_419#2 net_301#2 vdd net_430#2 ProyectoIntegrador__and2_1x
Xc_w96 0 net_421#2 net_467#2 vdd net_419 ProyectoIntegrador__and2_1x
Xc_w97 0 net_269#2 net_274#4 vdd net_346#2 ProyectoIntegrador__xor2_1x
Xc_w98 0 a11#0 vdd net_269#4 ProyectoIntegrador__id
Xc_w99 0 b11#0 vdd net_274 ProyectoIntegrador__id
Xc_w100 0 net_391#2 net_453#6 vdd net_315 ProyectoIntegrador__xor2_1x
Xc_w101 0 net_338#8 net_393#2 vdd net_391 ProyectoIntegrador__or2_1x
Xc_w102 0 net_319#2 net_317 vdd net_338#10 ProyectoIntegrador__or2_1x
Xc_w103 0 net_436#2 net_438#2 vdd net_319 ProyectoIntegrador__or2_1x
Xc_w104 0 net_269 net_274#2 vdd net_436 ProyectoIntegrador__and2_1x
Xc_w105 0 net_346#6 net_245 vdd net_438 ProyectoIntegrador__and2_1x
Xc_w106 0 net_464#4 net_426#4 vdd net_317#2 ProyectoIntegrador__and2_1x
Xc_w107 0 net_346 net_421 vdd net_464 ProyectoIntegrador__and2_1x
Xc_w108 0 net_458#6 net_301#12 vdd net_393 ProyectoIntegrador__and2_1x
Xc_w109 0 net_464#2 net_467 vdd net_458#4 ProyectoIntegrador__and2_1x
Xc_w110 0 net_374 net_388 vdd net_453#8 ProyectoIntegrador__xor2_1x
Xc_w111 0 a12#0 vdd net_374#4 ProyectoIntegrador__id
Xc_w112 0 b12#0 vdd net_388#4 ProyectoIntegrador__id
Xc_w113 0 net_377#2 net_449#6 vdd net_351#2 ProyectoIntegrador__xor2_1x
Xc_w114 0 net_299 net_363#2 vdd net_377 ProyectoIntegrador__or2_1x
Xc_w115 0 net_360 net_353#2 vdd net_299#2 ProyectoIntegrador__or2_1x
Xc_w116 0 net_374#2 net_388#2 vdd net_360#4 ProyectoIntegrador__and2_1x
Xc_w117 0 net_453#2 net_338#4 vdd net_353 ProyectoIntegrador__and2_1x
Xc_w118 0 net_365#2 net_301#18 vdd net_363 ProyectoIntegrador__and2_1x
Xc_w119 0 net_453#4 net_458#10 vdd net_365 ProyectoIntegrador__and2_1x
Xc_w120 0 net_146#2 net_179#2 vdd net_449#2 ProyectoIntegrador__xor2_1x
Xc_w121 0 a13#0 vdd net_146#4 ProyectoIntegrador__id
Xc_w122 0 b13#0 vdd net_179#4 ProyectoIntegrador__id
Xc_w123 0 net_151 net_442 vdd net_296#2 ProyectoIntegrador__xor2_1x
Xc_w124 0 net_234 net_184#2 vdd net_151#2 ProyectoIntegrador__or2_1x
Xc_w125 0 net_277#4 net_413 vdd net_234#2 ProyectoIntegrador__or2_1x
Xc_w126 0 net_149 net_415 vdd net_277#2 ProyectoIntegrador__or2_1x
Xc_w127 0 net_146 net_179 vdd net_149#2 ProyectoIntegrador__and2_1x
Xc_w128 0 net_449#4 net_360#2 vdd net_415#2 ProyectoIntegrador__and2_1x
Xc_w129 0 net_408#8 net_338#2 vdd net_413#2 ProyectoIntegrador__and2_1x
Xc_w130 0 net_449 net_453 vdd net_408#4 ProyectoIntegrador__and2_1x
Xc_w131 0 net_288 net_301 vdd net_184 ProyectoIntegrador__and2_1x
Xc_w132 0 net_408#6 net_458 vdd net_288#2 ProyectoIntegrador__and2_1x
Xc_w133 0 net_198 net_216 vdd net_442#8 ProyectoIntegrador__xor2_1x
Xc_w134 0 a14#0 vdd net_198#4 ProyectoIntegrador__id
Xc_w135 0 b14#0 vdd net_216#4 ProyectoIntegrador__id
Xc_w136 0 net_371 net_432 vdd net_311#2 ProyectoIntegrador__xor2_1x
Xc_w137 0 net_344 net_395#2 vdd net_371#2 ProyectoIntegrador__or2_1x
Xc_w138 0 net_417 net_369 vdd net_344#2 ProyectoIntegrador__or2_1x
Xc_w139 0 net_193#2 net_232#2 vdd net_417#2 ProyectoIntegrador__or2_1x
Xc_w140 0 net_198#2 net_216#2 vdd net_193 ProyectoIntegrador__and2_1x
Xc_w141 0 net_442#6 net_277#6 vdd net_232 ProyectoIntegrador__and2_1x
Xc_w142 0 net_405#4 net_338 vdd net_369#2 ProyectoIntegrador__and2_1x
Xc_w143 0 net_442#4 net_408#2 vdd net_405 ProyectoIntegrador__and2_1x
Xc_w144 0 net_397#2 net_301#8 vdd net_395 ProyectoIntegrador__and2_1x
Xc_w145 0 net_405#2 net_458#2 vdd net_397 ProyectoIntegrador__and2_1x
Xc_w146 0 net_163#2 net_172#2 vdd net_432#6 ProyectoIntegrador__xor2_1x
Xc_w147 0 a15#0 vdd net_163#4 ProyectoIntegrador__id
Xc_w148 0 b15#0 vdd net_172#4 ProyectoIntegrador__id
Xc_w149 0 net_729#21 net_1123#4 vdd net_705#5 ProyectoIntegrador__xor2_1x
Xc_w150 0 net_801 net_480#8 vdd net_729#18 ProyectoIntegrador__or2_1x
Xc_w151 0 net_329#11 net_538#8 vdd net_801#2 ProyectoIntegrador__or2_1x
Xc_w152 0 net_175 net_182#2 vdd net_329#2 ProyectoIntegrador__or2_1x
Xc_w153 0 net_166 net_168#2 vdd net_175#2 ProyectoIntegrador__or2_1x
Xc_w154 0 net_163 net_172 vdd net_166#2 ProyectoIntegrador__and2_1x
Xc_w155 0 net_432#4 net_193#4 vdd net_168 ProyectoIntegrador__and2_1x
Xc_w156 0 net_399#4 net_277 vdd net_182 ProyectoIntegrador__and2_1x
Xc_w157 0 net_432#2 net_442#2 vdd net_399 ProyectoIntegrador__and2_1x
Xc_w158 0 net_379#2 net_338#6 vdd net_538#2 ProyectoIntegrador__and2_1x
Xc_w159 0 net_399#2 net_408 vdd net_379 ProyectoIntegrador__and2_1x
Xc_w160 0 net_367 net_301#14 vdd net_480#2 ProyectoIntegrador__and2_1x
Xc_w161 0 net_379#4 net_458#8 vdd net_367#2 ProyectoIntegrador__and2_1x
Xc_w162 0 net_1024 net_1042 vdd net_1123#2 ProyectoIntegrador__xor2_1x
Xc_w163 0 a16#0 vdd net_1024#4 ProyectoIntegrador__id
Xc_w164 0 b16#0 vdd net_1042#4 ProyectoIntegrador__id
Xc_w165 0 net_956#2 net_1059#6 vdd net_954 ProyectoIntegrador__xor2_1x
Xc_w166 0 net_974#4 net_1095#2 vdd net_956 ProyectoIntegrador__or2_1x
Xc_w167 0 net_1024#2 net_1042#2 vdd net_974 ProyectoIntegrador__and2_1x
Xc_w168 0 net_1123#6 net_729#23 vdd net_1095 ProyectoIntegrador__and2_1x
Xc_w169 0 net_1021#4 net_958#2 vdd net_1059#2 ProyectoIntegrador__xor2_1x
Xc_w170 0 a17#0 vdd net_1021 ProyectoIntegrador__id
Xc_w171 0 b17#0 vdd net_958#4 ProyectoIntegrador__id
Xc_w172 0 net_963#2 net_1088#8 vdd net_961 ProyectoIntegrador__xor2_1x
Xc_w173 0 net_1075#6 net_995#2 vdd net_963 ProyectoIntegrador__or2_1x
Xc_w174 0 net_1040 net_1009 vdd net_1075#2 ProyectoIntegrador__or2_1x
Xc_w175 0 net_1021#2 net_958 vdd net_1040#2 ProyectoIntegrador__and2_1x
Xc_w176 0 net_1059#4 net_974#2 vdd net_1009#2 ProyectoIntegrador__and2_1x
Xc_w177 0 net_897 net_729#10 vdd net_995 ProyectoIntegrador__and2_1x
Xc_w178 0 net_1059 net_1123 vdd net_897#4 ProyectoIntegrador__and2_1x
Xc_w179 0 net_829#2 net_814#4 vdd net_1088#4 ProyectoIntegrador__xor2_1x
Xc_w180 0 a18#0 vdd net_829#4 ProyectoIntegrador__id
Xc_w181 0 b18#0 vdd net_814 ProyectoIntegrador__id
Xc_w182 0 net_821 net_1045#4 vdd net_823#2 ProyectoIntegrador__xor2_1x
Xc_w183 0 net_890#2 net_819 vdd net_821#2 ProyectoIntegrador__or2_1x
Xc_w184 0 net_832#2 net_965 vdd net_890 ProyectoIntegrador__or2_1x
Xc_w185 0 net_829 net_814#2 vdd net_832#4 ProyectoIntegrador__and2_1x
Xc_w186 0 net_1088#6 net_1075#4 vdd net_965#2 ProyectoIntegrador__and2_1x
Xc_w187 0 net_952#2 net_729#12 vdd net_819#2 ProyectoIntegrador__and2_1x
Xc_w188 0 net_1088 net_897#2 vdd net_952 ProyectoIntegrador__and2_1x
Xc_w189 0 net_977#2 net_1027#2 vdd net_1045#6 ProyectoIntegrador__xor2_1x
Xc_w190 0 a19#0 vdd net_977#4 ProyectoIntegrador__id
Xc_w191 0 b19#0 vdd net_1027#4 ProyectoIntegrador__id
Xc_w192 0 net_904#2 net_851#4 vdd net_914 ProyectoIntegrador__xor2_1x
Xc_w193 0 net_1117#2 net_861 vdd net_904 ProyectoIntegrador__or2_1x
Xc_w194 0 net_878 net_1129 vdd net_1117#6 ProyectoIntegrador__or2_1x
Xc_w195 0 net_1131 net_950 vdd net_878#2 ProyectoIntegrador__or2_1x
Xc_w196 0 net_977 net_1027 vdd net_1131#2 ProyectoIntegrador__and2_1x
Xc_w197 0 net_1045#2 net_832 vdd net_950#2 ProyectoIntegrador__and2_1x
Xc_w198 0 net_1114#4 net_1075 vdd net_1129#2 ProyectoIntegrador__and2_1x
Xc_w199 0 net_1045 net_1088#2 vdd net_1114#2 ProyectoIntegrador__and2_1x
Xc_w200 0 net_908#4 net_729#6 vdd net_861#2 ProyectoIntegrador__and2_1x
Xc_w201 0 net_1114 net_897#6 vdd net_908#10 ProyectoIntegrador__and2_1x
Xc_w202 0 net_1006#4 net_1018#4 vdd net_851 ProyectoIntegrador__xor2_1x
Xc_w203 0 a20#0 vdd net_1006#2 ProyectoIntegrador__id
Xc_w204 0 b20#0 vdd net_1018#2 ProyectoIntegrador__id
Xc_w205 0 net_1002#2 net_1053 vdd net_1000 ProyectoIntegrador__xor2_1x
Xc_w206 0 net_989 net_1004#2 vdd net_1002 ProyectoIntegrador__or2_1x
Xc_w207 0 net_971#2 net_1127#2 vdd net_989#2 ProyectoIntegrador__or2_1x
Xc_w208 0 net_1006 net_1018 vdd net_971 ProyectoIntegrador__and2_1x
Xc_w209 0 net_851#2 net_1117 vdd net_1127 ProyectoIntegrador__and2_1x
Xc_w210 0 net_1071 net_729#33 vdd net_1004 ProyectoIntegrador__and2_1x
Xc_w211 0 net_851#6 net_908 vdd net_1071#2 ProyectoIntegrador__and2_1x
Xc_w212 0 net_1015 net_1068 vdd net_1053#4 ProyectoIntegrador__xor2_1x
Xc_w213 0 a21#0 vdd net_1015#4 ProyectoIntegrador__id
Xc_w214 0 b21#0 vdd net_1068#4 ProyectoIntegrador__id
Xc_w215 0 net_827#2 net_1079#8 vdd net_840 ProyectoIntegrador__xor2_1x
Xc_w216 0 net_1011#2 net_842#2 vdd net_827 ProyectoIntegrador__or2_1x
Xc_w217 0 net_983#4 net_1013#2 vdd net_1011 ProyectoIntegrador__or2_1x
Xc_w218 0 net_987#2 net_969#2 vdd net_983 ProyectoIntegrador__or2_1x
Xc_w219 0 net_1015#2 net_1068#2 vdd net_987 ProyectoIntegrador__and2_1x
Xc_w220 0 net_1053#2 net_971#4 vdd net_969 ProyectoIntegrador__and2_1x
Xc_w221 0 net_1063#2 net_1117#10 vdd net_1013 ProyectoIntegrador__and2_1x
Xc_w222 0 net_1053#6 net_851#8 vdd net_1063#6 ProyectoIntegrador__and2_1x
Xc_w223 0 net_948#2 net_729#16 vdd net_842 ProyectoIntegrador__and2_1x
Xc_w224 0 net_1063#8 net_908#8 vdd net_948 ProyectoIntegrador__and2_1x
Xc_w225 0 net_1030 net_1107 vdd net_1079#6 ProyectoIntegrador__xor2_1x
Xc_w226 0 a22#0 vdd net_1030#4 ProyectoIntegrador__id
Xc_w227 0 b22#0 vdd net_1107#4 ProyectoIntegrador__id
Xc_w228 0 net_685 net_798#2 vdd net_694#2 ProyectoIntegrador__xor2_1x
Xc_w229 0 net_944#2 net_692 vdd net_685#2 ProyectoIntegrador__or2_1x
Xc_w230 0 net_1093 net_880 vdd net_944 ProyectoIntegrador__or2_1x
Xc_w231 0 net_980 net_1051#2 vdd net_1093#2 ProyectoIntegrador__or2_1x
Xc_w232 0 net_1030#2 net_1107#2 vdd net_980#4 ProyectoIntegrador__and2_1x
Xc_w233 0 net_1079#4 net_983#6 vdd net_1051 ProyectoIntegrador__and2_1x
Xc_w234 0 net_901 net_1117#4 vdd net_880#2 ProyectoIntegrador__and2_1x
Xc_w235 0 net_1079 net_1063 vdd net_901#2 ProyectoIntegrador__and2_1x
Xc_w236 0 net_942#2 net_729#25 vdd net_692#2 ProyectoIntegrador__and2_1x
Xc_w237 0 net_901#4 net_908#6 vdd net_942 ProyectoIntegrador__and2_1x
Xc_w238 0 net_1097 net_1033 vdd net_798#9 ProyectoIntegrador__xor2_1x
Xc_w239 0 a23#0 vdd net_1097#4 ProyectoIntegrador__id
Xc_w240 0 b23#0 vdd net_1033#4 ProyectoIntegrador__id
Xc_w241 0 net_680#2 net_707#8 vdd net_486 ProyectoIntegrador__xor2_1x
Xc_w242 0 net_738#4 net_946#2 vdd net_680 ProyectoIntegrador__or2_1x
Xc_w243 0 net_892#2 net_835#2 vdd net_738#8 ProyectoIntegrador__or2_1x
Xc_w244 0 net_1049 net_967#2 vdd net_892#5 ProyectoIntegrador__or2_1x
Xc_w245 0 net_1110 net_1100#2 vdd net_1049#2 ProyectoIntegrador__or2_1x
Xc_w246 0 net_1097#2 net_1033#2 vdd net_1110#2 ProyectoIntegrador__and2_1x
Xc_w247 0 net_798#7 net_980#2 vdd net_1100 ProyectoIntegrador__and2_1x
Xc_w248 0 net_1102#4 net_983#2 vdd net_967 ProyectoIntegrador__and2_1x
Xc_w249 0 net_798#5 net_1079#2 vdd net_1102#2 ProyectoIntegrador__and2_1x
Xc_w250 0 net_997#2 net_1117#8 vdd net_835#5 ProyectoIntegrador__and2_1x
Xc_w251 0 net_1102 net_1063#4 vdd net_997#4 ProyectoIntegrador__and2_1x
Xc_w252 0 net_918#2 net_729#36 vdd net_946 ProyectoIntegrador__and2_1x
Xc_w253 0 net_997 net_908#2 vdd net_918 ProyectoIntegrador__and2_1x
Xc_w254 0 net_488#2 net_509#4 vdd net_707#6 ProyectoIntegrador__xor2_1x
Xc_w255 0 a24#0 vdd net_488#4 ProyectoIntegrador__id
Xc_w256 0 b24#0 vdd net_509 ProyectoIntegrador__id
Xc_w257 0 net_515#2 net_719#4 vdd net_546 ProyectoIntegrador__xor2_1x
Xc_w258 0 net_494 net_496#2 vdd net_515 ProyectoIntegrador__or2_1x
Xc_w259 0 net_491 net_763#2 vdd net_494#2 ProyectoIntegrador__or2_1x
Xc_w260 0 net_488 net_509#2 vdd net_491#4 ProyectoIntegrador__and2_1x
Xc_w261 0 net_707#2 net_738#10 vdd net_763 ProyectoIntegrador__and2_1x
Xc_w262 0 net_696#2 net_729#2 vdd net_496 ProyectoIntegrador__and2_1x
Xc_w263 0 net_707#4 net_918#12 vdd net_696 ProyectoIntegrador__and2_1x
Xc_w264 0 net_512#2 net_543#2 vdd net_719#6 ProyectoIntegrador__xor2_1x
Xc_w265 0 a25#0 vdd net_512#4 ProyectoIntegrador__id
Xc_w266 0 b25#0 vdd net_543#4 ProyectoIntegrador__id
Xc_w267 0 net_785 net_885#4 vdd net_787#2 ProyectoIntegrador__xor2_1x
Xc_w268 0 net_783 net_796 vdd net_785#2 ProyectoIntegrador__or2_1x
Xc_w269 0 net_792 net_932#2 vdd net_783#2 ProyectoIntegrador__or2_1x
Xc_w270 0 net_771#5 net_660#5 vdd net_792#6 ProyectoIntegrador__or2_1x
Xc_w271 0 net_512 net_543 vdd net_771#2 ProyectoIntegrador__and2_1x
Xc_w272 0 net_719#2 net_491#2 vdd net_660#2 ProyectoIntegrador__and2_1x
Xc_w273 0 net_625#4 net_738#12 vdd net_932 ProyectoIntegrador__and2_1x
Xc_w274 0 net_719 net_707 vdd net_625 ProyectoIntegrador__and2_1x
Xc_w275 0 net_906#2 net_729#27 vdd net_796#2 ProyectoIntegrador__and2_1x
Xc_w276 0 net_625#2 net_918#8 vdd net_906 ProyectoIntegrador__and2_1x
Xc_w277 0 net_846 net_837#2 vdd net_885#8 ProyectoIntegrador__xor2_1x
Xc_w278 0 a26#0 vdd net_846#4 ProyectoIntegrador__id
Xc_w279 0 b26#0 vdd net_837 ProyectoIntegrador__id
Xc_w280 0 net_678#2 net_634#4 vdd net_609 ProyectoIntegrador__xor2_1x
Xc_w281 0 net_621 net_598#2 vdd net_678 ProyectoIntegrador__or2_1x
Xc_w282 0 net_596 net_611#2 vdd net_621#2 ProyectoIntegrador__or2_1x
Xc_w283 0 net_856#4 net_781#2 vdd net_596#2 ProyectoIntegrador__or2_1x
Xc_w284 0 net_846#2 net_837#4 vdd net_856 ProyectoIntegrador__and2_1x
Xc_w285 0 net_885#6 net_792#2 vdd net_781 ProyectoIntegrador__and2_1x
Xc_w286 0 net_613#4 net_738#18 vdd net_611 ProyectoIntegrador__and2_1x
Xc_w287 0 net_885#2 net_625#8 vdd net_613 ProyectoIntegrador__and2_1x
Xc_w288 0 net_623#2 net_729#29 vdd net_598 ProyectoIntegrador__and2_1x
Xc_w289 0 net_613#2 net_918#10 vdd net_623 ProyectoIntegrador__and2_1x
Xc_w290 0 net_483#2 net_506#2 vdd net_634#2 ProyectoIntegrador__xor2_1x
Xc_w291 0 a27#0 vdd net_483#4 ProyectoIntegrador__id
Xc_w292 0 b27#0 vdd net_506#4 ProyectoIntegrador__id
Xc_w293 0 net_475#2 net_616#6 vdd net_522 ProyectoIntegrador__xor2_1x
Xc_w294 0 net_769#2 net_524#2 vdd net_475 ProyectoIntegrador__or2_1x
Xc_w295 0 net_750#6 net_732 vdd net_769 ProyectoIntegrador__or2_1x
Xc_w296 0 net_776#2 net_916 vdd net_750#8 ProyectoIntegrador__or2_1x
Xc_w297 0 net_600 net_778 vdd net_776 ProyectoIntegrador__or2_1x
Xc_w298 0 net_483 net_506 vdd net_600#2 ProyectoIntegrador__and2_1x
Xc_w299 0 net_634#6 net_856#2 vdd net_778#2 ProyectoIntegrador__and2_1x
Xc_w300 0 net_894#4 net_792#4 vdd net_916#2 ProyectoIntegrador__and2_1x
Xc_w301 0 net_634 net_885 vdd net_894#2 ProyectoIntegrador__and2_1x
Xc_w302 0 net_698#10 net_738#2 vdd net_732#2 ProyectoIntegrador__and2_1x
Xc_w303 0 net_894 net_625#6 vdd net_698#12 ProyectoIntegrador__and2_1x
Xc_w304 0 net_638#2 net_729 vdd net_524 ProyectoIntegrador__and2_1x
Xc_w305 0 net_698#8 net_918#4 vdd net_638 ProyectoIntegrador__and2_1x
Xc_w306 0 net_498#2 net_472#2 vdd net_616#8 ProyectoIntegrador__xor2_1x