*** SPICE deck for cell BrentKungFastAdder16{lay} from library 
*** ProyectoIntegrador
*** Created on jue oct 16, 2014 23:40:04
*** Last revised on jue oct 16, 2014 23:40:04
*** Written on jue oct 16, 2014 23:43:05 by Electric VLSI Design System, 
*** version 9.05
*** Layout tech: mocmos, foundry MOSIS
*** UC SPICE *** , MIN_RESIST 0.5, MIN_CAPAC 0.5FF
***    P-Active:	areacap=1.167FF/um^2,	edgecap=0.203FF/um,	res=7.5ohms/sq
***    N-Active:	areacap=0.982FF/um^2,	edgecap=0.244FF/um,	res=6.7ohms/sq
***    
*** Polysilicon-1:	areacap=0.1467FF/um^2,	edgecap=0.0608FF/um,	res=7.8ohms/sq
***    Transistor-Poly:	areacap=0.09FF/um^2,	edgecap=0.0FF/um,	res=2.5ohms/sq
***    Poly-Cut:	areacap=0.0FF/um^2,	edgecap=0.0FF/um,	res=10.5ohms/sq
***    Active-Cut:	areacap=0.0FF/um^2,	edgecap=0.0FF/um,	res=12.2ohms/sq
***    Metal-1:	areacap=0.1209FF/um^2,	edgecap=0.1104FF/um,	res=0.08ohms/sq
***    Via1:	areacap=0.0FF/um^2,	edgecap=0.0FF/um,	res=5.69ohms/sq
***    Metal-2:	areacap=0.0843FF/um^2,	edgecap=0.0974FF/um,	res=0.08ohms/sq
***    Via2:	areacap=0.0FF/um^2,	edgecap=0.0FF/um,	res=11.39ohms/sq
***    Metal-3:	areacap=0.0843FF/um^2,	edgecap=0.0974FF/um,	res=0.08ohms/sq
***    Via3:	areacap=0.0FF/um^2,	edgecap=0.0FF/um,	res=16.73ohms/sq
***    Metal-4:	areacap=0.0843FF/um^2,	edgecap=0.0974FF/um,	res=0.08ohms/sq
***    Via4:	areacap=0.0FF/um^2,	edgecap=0.0FF/um,	res=21.44ohms/sq
***    Metal-5:	areacap=0.0843FF/um^2,	edgecap=0.0974FF/um,	res=0.07ohms/sq
***    Via5:	areacap=0.0FF/um^2,	edgecap=0.0FF/um,	res=24.08ohms/sq
***    Metal-6:	areacap=0.0423FF/um^2,	edgecap=0.1273FF/um,	res=0.03ohms/sq
***    Hi-Res:	areacap=0.0FF/um^2,	edgecap=0.0FF/um,	res=1.0ohms/sq
* Model cards are described in this file:
.include /home/lean/tfinal/trabajo/models/tsmc180nm.model

*** SUBCIRCUIT ProyectoIntegrador__id FROM CELL id{lay}
.SUBCKT ProyectoIntegrador__id 0 a vdd y
Mnmos_0 net_10 a#1 0 0 N L=0.2U W=0.4U AS=0.6P AD=0.3P PS=5.8U PD=2.2U
Mnmos_1 y#0 net_10#6 0 0 N L=0.2U W=0.4U AS=0.6P AD=0.3P PS=5.8U PD=2.2U
Mpmos_0 net_10#2 a#5 vdd vdd P L=0.2U W=0.8U AS=0.8P AD=0.3P PS=6.6U PD=2.2U
Mpmos_1 y#2 net_10#10 vdd vdd P L=0.2U W=0.8U AS=0.8P AD=0.3P PS=6.6U PD=2.2U
** Extracted Parasitic Capacitors ***
C0 net_10 0 0.649fF
C1 net_10#2 0 0.623fF
C2 y#0 0 0.546fF
C3 y#2 0 0.726fF
C4 net_10#4 0 1.495fF
C5 y 0 1.272fF
C6 a#3 0 0.66fF
C7 net_10#8 0 0.66fF
** Extracted Parasitic Resistors ***
R0 a#1 a#2 15.6
R1 a#3 a#2 181.35
R2 a#4 a#3 157.95
R3 a a#3 1.95
R4 a#5 a#4 15.6
R5 net_10#6 net_10#7 15.6
R6 net_10#8 net_10#7 181.35
R7 net_10#9 net_10#8 157.95
R8 net_10#4 net_10#8 1.95
R9 net_10#10 net_10#9 15.6
R10 y#2 y 1.507
R11 net_10#2 net_10#4 1.293
R12 net_10#4 net_10 1.347
R13 y#0 y 1.133
.ENDS ProyectoIntegrador__id

*** SUBCIRCUIT ProyectoIntegrador__xor2 FROM CELL xor2{lay}
.SUBCKT ProyectoIntegrador__xor2 0 a b vdd y
Mnmos_0 net_79 a#9 0 0 N L=0.2U W=0.4U AS=0.44P AD=0.088P PS=4.2U PD=0.85U
Mnmos_1 net_76 net_160#11 y#0 0 N L=0.2U W=0.4U AS=0.12P AD=0.088P PS=1U 
+PD=0.85U
Mnmos_2 0 net_270#10 net_76 0 N L=0.2U W=0.4U AS=0.088P AD=0.44P PS=0.85U 
+PD=4.2U
Mnmos_3 y#0 b#5 net_79 0 N L=0.2U W=0.4U AS=0.088P AD=0.12P PS=0.85U PD=1U
Mnmos_4 net_160#12 b#0 0 0 N L=0.2U W=0.4U AS=0.44P AD=0.2P PS=4.2U PD=1.8U
Mnmos_5 0 a#5 net_270#2 0 N L=0.2U W=0.4U AS=0.2P AD=0.44P PS=1.8U PD=4.2U
Mpmos_0 net_68 net_270#12 vdd vdd P L=0.2U W=0.4U AS=0.44P AD=0.088P PS=4.2U 
+PD=0.85U
Mpmos_1 y b#11 net_68 vdd P L=0.2U W=0.4U AS=0.088P AD=0.12P PS=0.85U PD=1U
Mpmos_2 net_70 net_160#5 y vdd P L=0.2U W=0.4U AS=0.12P AD=0.088P PS=1U 
+PD=0.85U
Mpmos_4 vdd a#12 net_70 vdd P L=0.2U W=0.4U AS=0.088P AD=0.44P PS=0.85U 
+PD=4.2U
Mpmos_5 vdd a#1 net_270 vdd P L=0.2U W=0.4U AS=0.2P AD=0.44P PS=1.8U PD=4.2U
Mpmos_6 net_160 b#13 vdd vdd P L=0.2U W=0.4U AS=0.44P AD=0.2P PS=4.2U PD=1.8U
** Extracted Parasitic Capacitors ***
C0 y#0 0 1.163fF
C1 y 0 1.163fF
C2 a#0 0 0.628fF
C3 net_160#12 0 0.594fF
C4 net_160 0 0.708fF
C5 a 0 1.289fF
C6 b 0 0.563fF
C7 net_270 0 1.519fF
C8 net_270#1 0 1.247fF
C9 net_160#2 0 1.373fF
C10 net_270#4 0 0.653fF
C11 b#2 0 0.691fF
C12 b#8 0 0.509fF
** Extracted Parasitic Resistors ***
R0 y y#0 2.413
R1 a#0 a 0.76
R2 a#1 a#2 15.6
R3 a#2 a#2##0 118.95
R4 a#2##0 a 118.95
R5 a#4 a#5 15.6
R6 a a#4 117
R7 b#0 b#1 31.2
R8 b#1 b#2 183.3
R9 b#2 b#4 171.6
R10 b b#2 1.95
R11 net_270 net_270#1 1.107
R12 net_270#1 net_270#2 0.653
R13 net_160#2 net_160 1.467
R14 net_160#2 net_160#4 0.6
R15 net_270#3 net_270#4 68.25
R16 net_270#7 net_270 1.95
R17 net_270#1 net_270#4 1.08
R18 a#0 a#0##0 101.4
R19 a#0##0 a#8 101.4
R20 b#5 b#6 39
R21 b#6 b#7 7.8
R22 b#7 b#8 142.35
R23 b#9 b#10 7.8
R24 b#10 b#11 54.6
R25 net_160#5 net_160#6 74.1
R26 net_160#6 net_160#7 7.8
R27 net_160#7 net_160#8 130.65
R28 net_160#9 net_160#10 7.8
R29 net_160#10 net_160#11 58.5
R30 b b#12 0.547
R31 b#8 b#9 118.95
R32 b#12 b#8 1.95
R33 net_160#8 net_160#9 91.65
R34 net_160#4 net_160#8 1.95
R35 net_160#12 net_160#2 1.16
R36 net_270#10 net_270#11 19.5
R37 net_270#11 net_270#3 31.2
R38 a#9 a#10 19.5
R39 a#10 a#11 15.6
R40 a#11 a 101.4
R41 net_270#12 net_270#13 35.1
R42 net_270#13 net_270#14 15.6
R43 net_270#14 net_270 76.05
R44 a#12 a#13 35.1
R45 a#13 a#8 15.6
R46 b#13 b#4 31.2
.ENDS ProyectoIntegrador__xor2

*** SUBCIRCUIT ProyectoIntegrador__and2 FROM CELL and2{lay}
.SUBCKT ProyectoIntegrador__and2 0 a b vdd y
Mnmos_0 net_121 b#7 net_149 0 N L=0.2U W=0.4U AS=0.088P AD=0.147P PS=0.85U 
+PD=1.267U
Mnmos_1 net_149 a#5 0 0 N L=0.2U W=0.4U AS=0.68P AD=0.088P PS=6.6U PD=0.85U
Mnmos_2 y#0 net_121#13 0 0 N L=0.2U W=0.4U AS=0.68P AD=0.3P PS=6.6U PD=2.2U
Mpmos_0 vdd b#1 net_121#2 vdd P L=0.2U W=0.4U AS=0.147P AD=0.587P PS=1.267U 
+PD=5.267U
Mpmos_1 net_121#2 a#1 vdd vdd P L=0.2U W=0.4U AS=0.587P AD=0.147P PS=5.267U 
+PD=1.267U
Mpmos_2 y#2 net_121#7 vdd vdd P L=0.2U W=0.8U AS=0.587P AD=0.3P PS=5.267U 
+PD=2.2U
** Extracted Parasitic Capacitors ***
C0 net_121 0 0.797fF
C1 net_121#2 0 0.514fF
C2 y#0 0 0.546fF
C3 y#2 0 0.726fF
C4 y 0 1.272fF
C5 net_121#3 0 2.19fF
C6 b#4 0 0.615fF
C7 a#3 0 0.518fF
** Extracted Parasitic Resistors ***
R0 a#1 a#2 15.6
R1 a#2 a#2##0 133.575
R2 a#2##0 a#3 133.575
R3 b#1 b#2 19.5
R4 b#2 b#3 15.6
R5 b#3 b#4 156
R6 b#5 b#6 7.8
R7 b#6 b#7 19.5
R8 b#4 b#5 159.9
R9 b b#4 1.95
R10 a#3 a#4 87.75
R11 a#3 a 1.95
R12 a#4 a#5 15.6
R13 net_121#2 net_121#3 1.067
R14 y#2 y 1.507
R15 y y#0 1.133
R16 net_121#7 net_121#8 15.6
R17 net_121#3 net_121 1.547
R18 net_121#11 net_121#11##0 106.275
R19 net_121#11##0 net_121#3 106.275
R20 net_121#3 net_121#8 126.75
R21 net_121#11 net_121#13 15.6
.ENDS ProyectoIntegrador__and2

*** SUBCIRCUIT ProyectoIntegrador__or2 FROM CELL or2{lay}
.SUBCKT ProyectoIntegrador__or2 0 a b vdd y
Mnmos_0 net_56#2 a#1 0 0 N L=0.2U W=0.4U AS=0.52P AD=0.147P PS=5U PD=1.267U
Mnmos_1 0 b#3 net_56#2 0 N L=0.2U W=0.4U AS=0.147P AD=0.52P PS=1.267U PD=5U
Mnmos_2 y#0 net_56#9 0 0 N L=0.2U W=0.4U AS=0.52P AD=0.3P PS=5U PD=2.2U
Mpmos_0 net_55 a#3 vdd vdd P L=0.2U W=0.4U AS=0.78P AD=0.088P PS=7U PD=0.85U
Mpmos_1 net_56 b#1 net_55 vdd P L=0.2U W=0.4U AS=0.088P AD=0.147P PS=0.85U 
+PD=1.267U
Mpmos_2 y#2 net_56#14 vdd vdd P L=0.2U W=0.8U AS=0.78P AD=0.3P PS=7U PD=2.2U
** Extracted Parasitic Capacitors ***
C0 net_56 0 0.688fF
C1 y#0 0 0.546fF
C2 y#2 0 0.726fF
C3 net_56#13 0 1.116fF
C4 y 0 1.272fF
C5 a#5 0 0.513fF
C6 net_56#6 0 0.848fF
C7 net_56#11 0 0.66fF
** Extracted Parasitic Resistors ***
R0 a#1 a#2 15.6
R1 a#3 a#4 15.6
R2 a#4 a#5 79.95
R3 b#1 b#2 19.5
R4 b#3 b#4 19.5
R5 b#2 b#5 7.8
R6 b#5 b#6 89.7
R7 b#7 b#4 15.6
R8 a#5 a#5##0 137.475
R9 a#5##0 a#2 137.475
R10 a#5 a 1.95
R11 b#6 b#6##0 113.1
R12 b#6##0 b#7 113.1
R13 b#6 b 1.95
R14 net_56#2 net_56#6 0.693
R15 net_56#9 net_56#10 15.6
R16 net_56#11 net_56#10 181.35
R17 net_56#12 net_56#11 157.95
R18 net_56#13 net_56#11 1.95
R19 y#2 y 1.507
R20 y y#0 1.133
R21 net_56#14 net_56#12 15.6
R22 net_56#6 net_56#13 0.64
R23 net_56#13 net_56 1.293
.ENDS ProyectoIntegrador__or2

*** TOP LEVEL CELL: BrentKungFastAdder16{lay}
Xc_cout 0 net_313#2 vdd cout#0 ProyectoIntegrador__id
Xc_sum0 0 net_8#2 vdd sum0#0 ProyectoIntegrador__id
Xc_sum1 0 net_85 vdd sum1#0 ProyectoIntegrador__id
Xc_sum2 0 net_25 vdd sum2#0 ProyectoIntegrador__id
Xc_sum3 0 net_31#2 vdd sum3#0 ProyectoIntegrador__id
Xc_sum4 0 net_75 vdd sum4#0 ProyectoIntegrador__id
Xc_sum5 0 net_128 vdd sum5#0 ProyectoIntegrador__id
Xc_sum6 0 net_94#2 vdd sum6#0 ProyectoIntegrador__id
Xc_sum7 0 net_143#2 vdd sum7#0 ProyectoIntegrador__id
Xc_sum8 0 net_309 vdd sum8#0 ProyectoIntegrador__id
Xc_sum9 0 net_226 vdd sum9#0 ProyectoIntegrador__id
Xc_sum10 0 net_259 vdd sum10#0 ProyectoIntegrador__id
Xc_sum11 0 net_194 vdd sum11#0 ProyectoIntegrador__id
Xc_sum12 0 net_385 vdd sum12#0 ProyectoIntegrador__id
Xc_sum13 0 net_321#2 vdd sum13#0 ProyectoIntegrador__id
Xc_sum14 0 net_67#2 vdd sum14#0 ProyectoIntegrador__id
Xc_sum15 0 net_434 vdd sum15#0 ProyectoIntegrador__id
Xc_w1 0 net_10#4 net_39#4 vdd net_8 ProyectoIntegrador__xor2
Xc_w2 0 a0#0 vdd net_10 ProyectoIntegrador__id
Xc_w3 0 b0#0 vdd net_39 ProyectoIntegrador__id
Xc_w4 0 net_96#4 net_118#4 vdd net_85#2 ProyectoIntegrador__xor2
Xc_w5 0 net_87#4 net_99#4 vdd net_96 ProyectoIntegrador__xor2
Xc_w6 0 a1#0 vdd net_87 ProyectoIntegrador__id
Xc_w7 0 b1#0 vdd net_99 ProyectoIntegrador__id
Xc_w8 0 net_10#2 net_39#2 vdd net_118 ProyectoIntegrador__and2
Xc_w9 0 net_55#2 net_51 vdd net_25#2 ProyectoIntegrador__xor2
Xc_w10 0 net_2#2 net_35#2 vdd net_55 ProyectoIntegrador__xor2
Xc_w11 0 a2#0 vdd net_2 ProyectoIntegrador__id
Xc_w12 0 b2#0 vdd net_35 ProyectoIntegrador__id
Xc_w13 0 net_78 net_0 vdd net_51#4 ProyectoIntegrador__or2
Xc_w14 0 net_87#2 net_99#2 vdd net_78#2 ProyectoIntegrador__and2
Xc_w15 0 net_96#2 net_118#2 vdd net_0#2 ProyectoIntegrador__and2
Xc_w16 0 net_47#4 net_21#2 vdd net_31 ProyectoIntegrador__xor2
Xc_w17 0 net_17 net_28 vdd net_47#6 ProyectoIntegrador__xor2
Xc_w18 0 a3#0 vdd net_17#4 ProyectoIntegrador__id
Xc_w19 0 b3#0 vdd net_28#4 ProyectoIntegrador__id
Xc_w20 0 net_44#4 net_23#2 vdd net_21 ProyectoIntegrador__or2
Xc_w21 0 net_2#4 net_35#4 vdd net_44 ProyectoIntegrador__and2
Xc_w22 0 net_55#4 net_51#2 vdd net_23 ProyectoIntegrador__and2
Xc_w23 0 net_104#6 net_170#6 vdd net_75#2 ProyectoIntegrador__xor2
Xc_w24 0 net_206#4 net_187#4 vdd net_104 ProyectoIntegrador__xor2
Xc_w25 0 a4#0 vdd net_206#2 ProyectoIntegrador__id
Xc_w26 0 b4#0 vdd net_187#2 ProyectoIntegrador__id
Xc_w27 0 net_63 net_73 vdd net_170#8 ProyectoIntegrador__or2
Xc_w28 0 net_108 net_102 vdd net_63#2 ProyectoIntegrador__or2
Xc_w29 0 net_17#2 net_28#2 vdd net_108#2 ProyectoIntegrador__and2
Xc_w30 0 net_47#2 net_44#2 vdd net_102#2 ProyectoIntegrador__and2
Xc_w31 0 net_33 net_51#6 vdd net_73#2 ProyectoIntegrador__and2
Xc_w32 0 net_47 net_55#6 vdd net_33#2 ProyectoIntegrador__and2
Xc_w33 0 net_90#2 net_82 vdd net_128#2 ProyectoIntegrador__xor2
Xc_w34 0 net_70#2 net_60#2 vdd net_90#6 ProyectoIntegrador__xor2
Xc_w35 0 a5#0 vdd net_70#4 ProyectoIntegrador__id
Xc_w36 0 b5#0 vdd net_60#4 ProyectoIntegrador__id
Xc_w37 0 net_115#2 net_65 vdd net_82#2 ProyectoIntegrador__or2
Xc_w38 0 net_206 net_187 vdd net_115 ProyectoIntegrador__and2
Xc_w39 0 net_104#4 net_170#4 vdd net_65#2 ProyectoIntegrador__and2
Xc_w40 0 net_164#4 net_201 vdd net_94#5 ProyectoIntegrador__xor2
Xc_w41 0 net_135#2 net_184#2 vdd net_164 ProyectoIntegrador__xor2
Xc_w42 0 a6#0 vdd net_135 ProyectoIntegrador__id
Xc_w43 0 b6#0 vdd net_184 ProyectoIntegrador__id
Xc_w44 0 net_110 net_113#2 vdd net_201#4 ProyectoIntegrador__or2
Xc_w45 0 net_122 net_80#2 vdd net_110#4 ProyectoIntegrador__or2
Xc_w46 0 net_70 net_60 vdd net_122#2 ProyectoIntegrador__and2
Xc_w47 0 net_90#4 net_115#4 vdd net_80 ProyectoIntegrador__and2
Xc_w48 0 net_124#4 net_170#2 vdd net_113 ProyectoIntegrador__and2
Xc_w49 0 net_90 net_104#2 vdd net_124#2 ProyectoIntegrador__and2
Xc_w50 0 net_131#4 net_160#2 vdd net_143 ProyectoIntegrador__xor2
Xc_w51 0 net_153 net_140 vdd net_131#6 ProyectoIntegrador__xor2
Xc_w52 0 a7#0 vdd net_153#4 ProyectoIntegrador__id
Xc_w53 0 b7#0 vdd net_140#4 ProyectoIntegrador__id
Xc_w54 0 net_181#4 net_162#2 vdd net_160 ProyectoIntegrador__or2
Xc_w55 0 net_135#4 net_184#4 vdd net_181 ProyectoIntegrador__and2
Xc_w56 0 net_164#6 net_201#2 vdd net_162 ProyectoIntegrador__and2
Xc_w57 0 net_253#4 net_330#8 vdd net_309#2 ProyectoIntegrador__xor2
Xc_w58 0 net_244#2 net_229#2 vdd net_253#6 ProyectoIntegrador__xor2
Xc_w59 0 a8#0 vdd net_244#4 ProyectoIntegrador__id
Xc_w60 0 b8#0 vdd net_229#4 ProyectoIntegrador__id
Xc_w61 0 net_261 net_271 vdd net_330#10 ProyectoIntegrador__or2
Xc_w62 0 net_151#2 net_179#2 vdd net_261#2 ProyectoIntegrador__or2
Xc_w63 0 net_158#2 net_199#2 vdd net_151 ProyectoIntegrador__or2
Xc_w64 0 net_153#2 net_140#2 vdd net_158 ProyectoIntegrador__and2
Xc_w65 0 net_131#2 net_181#2 vdd net_199 ProyectoIntegrador__and2
Xc_w66 0 net_145#4 net_110#2 vdd net_179 ProyectoIntegrador__and2
Xc_w67 0 net_131 net_164#2 vdd net_145#2 ProyectoIntegrador__and2
Xc_w68 0 net_148#5 net_170#11 vdd net_271#2 ProyectoIntegrador__and2
Xc_w69 0 net_145 net_124 vdd net_148#2 ProyectoIntegrador__and2
Xc_w70 0 net_355#2 net_216 vdd net_226#2 ProyectoIntegrador__xor2
Xc_w71 0 net_414#4 net_425#4 vdd net_355#9 ProyectoIntegrador__xor2
Xc_w72 0 a9#0 vdd net_414 ProyectoIntegrador__id
Xc_w73 0 b9#0 vdd net_425 ProyectoIntegrador__id
Xc_w74 0 net_232 net_263 vdd net_216#2 ProyectoIntegrador__or2
Xc_w75 0 net_244 net_229 vdd net_232#4 ProyectoIntegrador__and2
Xc_w76 0 net_253#2 net_330#6 vdd net_263#2 ProyectoIntegrador__and2
Xc_w77 0 net_219#4 net_211#2 vdd net_259#2 ProyectoIntegrador__xor2
Xc_w78 0 net_176#4 net_196#4 vdd net_219#2 ProyectoIntegrador__xor2
Xc_w79 0 a10#0 vdd net_176 ProyectoIntegrador__id
Xc_w80 0 b10#0 vdd net_196 ProyectoIntegrador__id
Xc_w81 0 net_277#4 net_280 vdd net_211 ProyectoIntegrador__or2
Xc_w82 0 net_293#2 net_214#2 vdd net_277#2 ProyectoIntegrador__or2
Xc_w83 0 net_414#2 net_425#2 vdd net_293#5 ProyectoIntegrador__and2
Xc_w84 0 net_355#4 net_232#2 vdd net_214 ProyectoIntegrador__and2
Xc_w85 0 net_273#4 net_330#4 vdd net_280#2 ProyectoIntegrador__and2
Xc_w86 0 net_355#6 net_253 vdd net_273#2 ProyectoIntegrador__and2
Xc_w87 0 net_237#4 net_192 vdd net_194#2 ProyectoIntegrador__xor2
Xc_w88 0 net_268#4 net_241#4 vdd net_237 ProyectoIntegrador__xor2
Xc_w89 0 a11#0 vdd net_268 ProyectoIntegrador__id
Xc_w90 0 b11#0 vdd net_241 ProyectoIntegrador__id
Xc_w91 0 net_265#4 net_257#2 vdd net_192#2 ProyectoIntegrador__or2
Xc_w92 0 net_176#2 net_196#2 vdd net_265 ProyectoIntegrador__and2
Xc_w93 0 net_219#6 net_211#4 vdd net_257 ProyectoIntegrador__and2
Xc_w94 0 net_305 net_326 vdd net_385#2 ProyectoIntegrador__xor2
Xc_w95 0 net_323 net_302 vdd net_305#6 ProyectoIntegrador__xor2
Xc_w96 0 a12#0 vdd net_323#4 ProyectoIntegrador__id
Xc_w97 0 b12#0 vdd net_302#4 ProyectoIntegrador__id
Xc_w98 0 net_286#4 net_364#2 vdd net_326#4 ProyectoIntegrador__or2
Xc_w99 0 net_353 net_344#2 vdd net_286#2 ProyectoIntegrador__or2
Xc_w100 0 net_291 net_342 vdd net_353#2 ProyectoIntegrador__or2
Xc_w101 0 net_268#2 net_241#2 vdd net_291#2 ProyectoIntegrador__and2
Xc_w102 0 net_237#6 net_265#2 vdd net_342#2 ProyectoIntegrador__and2
Xc_w103 0 net_223#2 net_277 vdd net_344 ProyectoIntegrador__and2
Xc_w104 0 net_237#2 net_219 vdd net_223#4 ProyectoIntegrador__and2
Xc_w105 0 net_361#2 net_330#2 vdd net_364 ProyectoIntegrador__and2
Xc_w106 0 net_223 net_273 vdd net_361#4 ProyectoIntegrador__and2
Xc_w107 0 net_282#4 net_296#2 vdd net_321 ProyectoIntegrador__xor2
Xc_w108 0 net_428#4 net_366#4 vdd net_282#6 ProyectoIntegrador__xor2
Xc_w109 0 a13#0 vdd net_428 ProyectoIntegrador__id
Xc_w110 0 b13#0 vdd net_366 ProyectoIntegrador__id
Xc_w111 0 net_336#4 net_298#2 vdd net_296 ProyectoIntegrador__or2
Xc_w112 0 net_323#2 net_302#2 vdd net_336 ProyectoIntegrador__and2
Xc_w113 0 net_305#2 net_326#2 vdd net_298 ProyectoIntegrador__and2
Xc_w114 0 net_381#2 net_369#2 vdd net_67#14 ProyectoIntegrador__xor2
Xc_w115 0 net_387#2 net_409#2 vdd net_381#6 ProyectoIntegrador__xor2
Xc_w116 0 a14#0 vdd net_387#4 ProyectoIntegrador__id
Xc_w117 0 b14#0 vdd net_409#4 ProyectoIntegrador__id
Xc_w118 0 net_395#2 net_417#2 vdd net_369#4 ProyectoIntegrador__or2
Xc_w119 0 net_379 net_407#2 vdd net_395#4 ProyectoIntegrador__or2
Xc_w120 0 net_428#2 net_366#2 vdd net_379#2 ProyectoIntegrador__and2
Xc_w121 0 net_282#2 net_336#2 vdd net_407 ProyectoIntegrador__and2
Xc_w122 0 net_348 net_326#6 vdd net_417 ProyectoIntegrador__and2
Xc_w123 0 net_282 net_305#4 vdd net_348#4 ProyectoIntegrador__and2
Xc_w124 0 net_398#2 net_421 vdd net_434#2 ProyectoIntegrador__xor2
Xc_w125 0 net_374#4 net_402#4 vdd net_398 ProyectoIntegrador__xor2
Xc_w126 0 a15#0 vdd net_374 ProyectoIntegrador__id
Xc_w127 0 b15#0 vdd net_402 ProyectoIntegrador__id
Xc_w128 0 net_431 net_419 vdd net_421#2 ProyectoIntegrador__or2
Xc_w129 0 net_387 net_409 vdd net_431#4 ProyectoIntegrador__and2
Xc_w130 0 net_381 net_369 vdd net_419#2 ProyectoIntegrador__and2
Xc_w131 0 net_346 net_315#2 vdd net_313 ProyectoIntegrador__or2
Xc_w132 0 net_311 net_359 vdd net_346#2 ProyectoIntegrador__or2
Xc_w133 0 net_351 net_412 vdd net_311#2 ProyectoIntegrador__or2
Xc_w134 0 net_423#2 net_372 vdd net_351#2 ProyectoIntegrador__or2
Xc_w135 0 net_374#2 net_402#2 vdd net_423 ProyectoIntegrador__and2
Xc_w136 0 net_398#4 net_431#2 vdd net_372#2 ProyectoIntegrador__and2
Xc_w137 0 net_390#4 net_395 vdd net_412#2 ProyectoIntegrador__and2
Xc_w138 0 net_398#6 net_381#4 vdd net_390 ProyectoIntegrador__and2
Xc_w139 0 net_339#2 net_286 vdd net_359#2 ProyectoIntegrador__and2
Xc_w140 0 net_390#2 net_348#2 vdd net_339#4 ProyectoIntegrador__and2
Xc_w141 0 net_317#2 net_330 vdd net_315 ProyectoIntegrador__and2
Xc_w142 0 net_339 net_361 vdd net_317 ProyectoIntegrador__and2
** Extracted Parasitic Capacitors ***
C0 net_313#2 0 1.304fF
C1 cout#0 0 0.787fF
C2 net_8#2 0 0.875fF
C3 sum0#0 0 0.787fF
C4 net_85 0 1.304fF
C5 sum1#0 0 1.073fF
C6 net_25 0 1.018fF
C7 sum2#0 0 0.787fF
C8 net_31#2 0 1.161fF
C9 sum3#0 0 0.93fF
C10 net_75 0 1.854fF
C11 sum4#0 0 0.787fF
C12 net_128 0 2.019fF
C13 sum5#0 0 1.073fF
C14 net_94#2 0 1.568fF
C15 sum6#0 0 0.787fF
C16 net_143#2 0 1.018fF
C17 sum7#0 0 1.073fF
C18 net_309 0 1.304fF
C19 sum8#0 0 1.073fF
C20 net_226 0 1.018fF
C21 sum9#0 0 0.787fF
C22 net_259 0 1.282fF
C23 sum10#0 0 1.073fF
C24 net_194 0 1.733fF
C25 sum11#0 0 1.502fF
C26 net_385 0 1.018fF
C27 sum12#0 0 0.941fF
C28 net_321#2 0 1.447fF
C29 sum13#0 0 1.073fF
C30 net_67#2 0 1.997fF
C31 sum14#0 0 0.787fF
C32 net_434 0 1.876fF
C33 sum15#0 0 0.941fF
C34 net_10#4 0 0.699fF
C35 net_39#4 0 1.161fF
C36 net_8 0 1.359fF
C37 a0#0 0 0.875fF
C38 net_10 0 0.787fF
C39 b0#0 0 1.161fF
C40 net_39 0 1.073fF
C41 net_96#4 0 1.271fF
C42 net_118#4 0 1.733fF
C43 net_85#2 0 1.788fF
C44 net_87#4 0 1.128fF
C45 net_99#4 0 1.447fF
C46 net_96 0 1.931fF
C47 a1#0 0 1.876fF
C48 net_87 0 1.216fF
C49 b1#0 0 2.019fF
C50 net_99 0 1.359fF
C51 net_10#2 0 0.611fF
C52 net_39#2 0 1.161fF
C53 net_118 0 1.227fF
C54 net_55#2 0 1.414fF
C55 net_51 0 1.447fF
C56 net_25#2 0 1.502fF
C57 net_2#2 0 0.699fF
C58 net_35#2 0 1.161fF
C59 net_55 0 2.074fF
C60 a2#0 0 0.875fF
C61 net_2 0 0.787fF
C62 b2#0 0 1.161fF
C63 net_35 0 1.073fF
C64 net_78 0 1.447fF
C65 net_0 0 1.051fF
C66 net_51#4 0 1.359fF
C67 net_87#2 0 1.04fF
C68 net_99#2 0 1.447fF
C69 net_78#2 0 1.073fF
C70 net_96#2 0 1.689fF
C71 net_118#2 0 1.139fF
C72 net_0#2 0 0.787fF
C73 net_47#4 0 1.271fF
C74 net_21#2 0 1.018fF
C75 net_31 0 1.645fF
C76 net_17 0 0.842fF
C77 net_28 0 1.161fF
C78 net_47#6 0 1.931fF
C79 a3#0 0 1.161fF
C80 net_17#4 0 0.93fF
C81 b3#0 0 1.304fF
C82 net_28#4 0 1.073fF
C83 net_44#4 0 1.568fF
C84 net_23#2 0 1.194fF
C85 net_21 0 0.93fF
C86 net_2#4 0 0.611fF
C87 net_35#4 0 1.161fF
C88 net_44 0 1.216fF
C89 net_55#4 0 1.326fF
C90 net_51#2 0 1.447fF
C91 net_23 0 0.93fF
C92 net_104#6 0 1.271fF
C93 net_170#6 0 1.425fF
C94 net_75#2 0 1.502fF
C95 net_206#4 0 1.172fF
C96 net_187#4 0 1.282fF
C97 net_104 0 1.931fF
C98 a4#0 0 2.019fF
C99 net_206#2 0 1.788fF
C100 b4#0 0 1.876fF
C101 net_187#2 0 1.502fF
C102 net_63 0 1.139fF
C103 net_73 0 1.194fF
C104 net_170#8 0 1.513fF
C105 net_108 0 1.854fF
C106 net_102 0 1.623fF
C107 net_63#2 0 0.787fF
C108 net_17#2 0 0.754fF
C109 net_28#2 0 1.161fF
C110 net_108#2 0 1.37fF
C111 net_47#2 0 1.183fF
C112 net_44#2 0 1.304fF
C113 net_102#2 0 1.513fF
C114 net_33 0 0.897fF
C115 net_51#6 0 1.447fF
C116 net_73#2 0 1.942fF
C117 net_47 0 1.183fF
C118 net_55#6 0 1.59fF
C119 net_33#2 0 1.073fF
C120 net_90#2 0 1.128fF
C121 net_82 0 1.161fF
C122 net_128#2 0 2.504fF
C123 net_70#2 0 0.842fF
C124 net_60#2 0 0.875fF
C125 net_90#6 0 1.788fF
C126 a5#0 0 1.018fF
C127 net_70#4 0 0.93fF
C128 b5#0 0 0.875fF
C129 net_60#4 0 0.787fF
C130 net_115#2 0 1.854fF
C131 net_65 0 1.051fF
C132 net_82#2 0 1.073fF
C133 net_206 0 1.26fF
C134 net_187 0 1.282fF
C135 net_115 0 1.502fF
C136 net_104#4 0 1.183fF
C137 net_170#4 0 1.425fF
C138 net_65#2 0 0.787fF
C139 net_164#4 0 1.128fF
C140 net_201 0 1.733fF
C141 net_94#5 0 2.217fF
C142 net_135#2 0 0.699fF
C143 net_184#2 0 1.59fF
C144 net_164 0 1.788fF
C145 a6#0 0 0.875fF
C146 net_135 0 0.787fF
C147 b6#0 0 1.304fF
C148 net_184 0 1.502fF
C149 net_110 0 1.854fF
C150 net_113#2 0 1.766fF
C151 net_201#4 0 1.227fF
C152 net_122 0 2.14fF
C153 net_80#2 0 1.337fF
C154 net_110#4 0 1.502fF
C155 net_70 0 0.754fF
C156 net_60 0 0.875fF
C157 net_122#2 0 1.788fF
C158 net_90#4 0 1.04fF
C159 net_115#4 0 1.59fF
C160 net_80 0 1.073fF
C161 net_124#4 0 1.612fF
C162 net_170#2 0 1.425fF
C163 net_113 0 1.502fF
C164 net_90 0 1.04fF
C165 net_104#2 0 1.447fF
C166 net_124#2 0 1.788fF
C167 net_131#4 0 0.699fF
C168 net_160#2 0 1.304fF
C169 net_143 0 1.502fF
C170 net_153 0 0.985fF
C171 net_140 0 1.018fF
C172 net_131#6 0 1.359fF
C173 a7#0 0 1.018fF
C174 net_153#4 0 1.073fF
C175 b7#0 0 0.875fF
C176 net_140#4 0 0.93fF
C177 net_181#4 0 1.854fF
C178 net_162#2 0 1.48fF
C179 net_160 0 1.216fF
C180 net_135#4 0 0.611fF
C181 net_184#4 0 1.59fF
C182 net_181 0 1.502fF
C183 net_164#6 0 1.04fF
C184 net_201#2 0 1.733fF
C185 net_162 0 1.216fF
C186 net_253#4 0 1.414fF
C187 net_330#8 0 1.568fF
C188 net_309#2 0 1.227fF
C189 net_244#2 0 1.128fF
C190 net_229#2 0 1.161fF
C191 net_253#6 0 2.074fF
C192 a8#0 0 1.59fF
C193 net_244#4 0 1.216fF
C194 b8#0 0 1.161fF
C195 net_229#4 0 1.073fF
C196 net_261 0 1.997fF
C197 net_271 0 2.052fF
C198 net_330#10 0 1.656fF
C199 net_151#2 0 1.425fF
C200 net_179#2 0 1.766fF
C201 net_261#2 0 1.37fF
C202 net_158#2 0 1.568fF
C203 net_199#2 0 1.909fF
C204 net_151 0 1.073fF
C205 net_153#2 0 0.897fF
C206 net_140#2 0 1.018fF
C207 net_158 0 1.216fF
C208 net_131#2 0 0.611fF
C209 net_181#2 0 1.59fF
C210 net_199 0 1.645fF
C211 net_145#4 0 2.118fF
C212 net_110#2 0 1.59fF
C213 net_179 0 1.37fF
C214 net_131 0 0.611fF
C215 net_164#2 0 1.304fF
C216 net_145#2 0 0.93fF
C217 net_148#5 0 1.04fF
C218 net_170#11 0 1.447fF
C219 net_271#2 0 1.788fF
C220 net_145 0 2.118fF
C221 net_124 0 1.876fF
C222 net_148#2 0 1.942fF
C223 net_355#2 0 1.315fF
C224 net_216 0 0.875fF
C225 net_226#2 0 1.502fF
C226 net_414#4 0 1.271fF
C227 net_425#4 0 1.59fF
C228 net_355#9 0 1.359fF
C229 a9#0 0 0.853fF
C230 net_414 0 1.359fF
C231 b9#0 0 0.853fF
C232 net_425 0 1.502fF
C233 net_232 0 1.425fF
C234 net_263 0 1.909fF
C235 net_216#2 0 0.787fF
C236 net_244 0 1.04fF
C237 net_229 0 1.161fF
C238 net_232#4 0 1.073fF
C239 net_253#2 0 1.326fF
C240 net_330#6 0 1.568fF
C241 net_263#2 0 1.645fF
C242 net_219#4 0 0.842fF
C243 net_211#2 0 0.875fF
C244 net_259#2 0 2.217fF
C245 net_176#4 0 1.414fF
C246 net_196#4 0 1.733fF
C247 net_219#2 0 1.513fF
C248 a10#0 0 1.304fF
C249 net_176 0 1.502fF
C250 b10#0 0 1.447fF
C251 net_196 0 1.645fF
C252 net_277#4 0 2.283fF
C253 net_280 0 2.338fF
C254 net_211 0 0.787fF
C255 net_293#2 0 1.733fF
C256 net_214#2 0 1.051fF
C257 net_277#2 0 1.931fF
C258 net_414#2 0 1.183fF
C259 net_425#2 0 1.59fF
C260 net_293#5 0 1.216fF
C261 net_355#4 0 1.403fF
C262 net_232#2 0 1.161fF
C263 net_214 0 0.787fF
C264 net_273#4 0 1.612fF
C265 net_330#4 0 1.568fF
C266 net_280#2 0 2.074fF
C267 net_355#6 0 1.403fF
C268 net_253 0 1.59fF
C269 net_273#2 0 1.788fF
C270 net_237#4 0 1.887fF
C271 net_192 0 1.733fF
C272 net_194#2 0 2.217fF
C273 net_268#4 0 1.7fF
C274 net_241#4 0 1.304fF
C275 net_237 0 1.788fF
C276 a11#0 0 2.019fF
C277 net_268 0 1.788fF
C278 b11#0 0 1.447fF
C279 net_241 0 1.216fF
C280 net_265#4 0 0.875fF
C281 net_257#2 0 1.106fF
C282 net_192#2 0 1.645fF
C283 net_176#2 0 1.326fF
C284 net_196#2 0 1.733fF
C285 net_265 0 1.227fF
C286 net_219#6 0 0.754fF
C287 net_211#4 0 0.875fF
C288 net_257 0 1.645fF
C289 net_305 0 1.128fF
C290 net_326 0 1.447fF
C291 net_385#2 0 1.227fF
C292 net_323 0 1.271fF
C293 net_302 0 1.304fF
C294 net_305#6 0 1.788fF
C295 a12#0 0 1.304fF
C296 net_323#4 0 1.359fF
C297 b12#0 0 1.018fF
C298 net_302#4 0 1.216fF
C299 net_286#4 0 1.139fF
C300 net_364#2 0 2.338fF
C301 net_326#4 0 1.359fF
C302 net_353 0 2.14fF
C303 net_344#2 0 1.909fF
C304 net_286#2 0 0.787fF
C305 net_291 0 1.282fF
C306 net_342 0 1.909fF
C307 net_353#2 0 1.788fF
C308 net_268#2 0 1.612fF
C309 net_241#2 0 1.304fF
C310 net_291#2 0 2.085fF
C311 net_237#6 0 1.04fF
C312 net_265#2 0 1.876fF
C313 net_342#2 0 1.37fF
C314 net_223#2 0 0.754fF
C315 net_277 0 2.019fF
C316 net_344 0 1.37fF
C317 net_237#2 0 1.04fF
C318 net_219 0 1.018fF
C319 net_223#4 0 0.93fF
C320 net_361#2 0 1.755fF
C321 net_330#2 0 1.447fF
C322 net_364 0 2.074fF
C323 net_223 0 0.754fF
C324 net_273 0 1.876fF
C325 net_361#4 0 1.084fF
C326 net_282#4 0 0.699fF
C327 net_296#2 0 1.161fF
C328 net_321 0 1.931fF
C329 net_428#4 0 1.172fF
C330 net_366#4 0 1.854fF
C331 net_282#6 0 1.359fF
C332 a13#0 0 0.853fF
C333 net_428 0 1.645fF
C334 b13#0 0 0.853fF
C335 net_366 0 0.787fF
C336 net_336#4 0 1.854fF
C337 net_298#2 0 1.337fF
C338 net_296 0 1.073fF
C339 net_323#2 0 1.183fF
C340 net_302#2 0 1.304fF
C341 net_336 0 1.502fF
C342 net_305#2 0 1.04fF
C343 net_326#2 0 1.447fF
C344 net_298 0 1.073fF
C345 net_381#2 0 0.842fF
C346 net_369#2 0 0.875fF
C347 net_67#14 0 1.645fF
C348 net_387#2 0 0.985fF
C349 net_409#2 0 1.447fF
C350 net_381#6 0 1.502fF
C351 a14#0 0 0.853fF
C352 net_387#4 0 1.073fF
C353 b14#0 0 0.853fF
C354 net_409#4 0 1.359fF
C355 net_395#2 0 1.568fF
C356 net_417#2 0 1.766fF
C357 net_369#4 0 0.787fF
C358 net_379 0 1.282fF
C359 net_407#2 0 1.623fF
C360 net_395#4 0 1.216fF
C361 net_428#2 0 1.469fF
C362 net_366#2 0 0.875fF
C363 net_379#2 0 0.93fF
C364 net_282#2 0 0.611fF
C365 net_336#2 0 1.59fF
C366 net_407 0 1.37fF
C367 net_348 0 1.612fF
C368 net_326#6 0 1.447fF
C369 net_417 0 1.227fF
C370 net_282 0 0.611fF
C371 net_305#4 0 1.304fF
C372 net_348#4 0 1.788fF
C373 net_398#2 0 1.128fF
C374 net_421 0 1.59fF
C375 net_434#2 0 2.36fF
C376 net_374#4 0 0.699fF
C377 net_402#4 0 1.304fF
C378 net_398 0 1.788fF
C379 a15#0 0 0.853fF
C380 net_374 0 0.787fF
C381 b15#0 0 0.853fF
C382 net_402 0 1.216fF
C383 net_431 0 2.14fF
C384 net_419 0 1.766fF
C385 net_421#2 0 1.502fF
C386 net_387 0 0.897fF
C387 net_409 0 1.447fF
C388 net_431#4 0 1.788fF
C389 net_381 0 0.754fF
C390 net_369 0 0.875fF
C391 net_419#2 0 1.502fF
C392 net_346 0 1.997fF
C393 net_315#2 0 1.48fF
C394 net_313 0 1.216fF
C395 net_311 0 1.568fF
C396 net_359 0 2.195fF
C397 net_346#2 0 1.645fF
C398 net_351 0 2.14fF
C399 net_412 0 1.106fF
C400 net_311#2 0 1.216fF
C401 net_423#2 0 0.875fF
C402 net_372 0 1.678fF
C403 net_351#2 0 1.788fF
C404 net_374#2 0 0.611fF
C405 net_402#2 0 1.304fF
C406 net_423 0 1.502fF
C407 net_398#4 0 1.04fF
C408 net_431#2 0 1.876fF
C409 net_372#2 0 0.787fF
C410 net_390#4 0 0.897fF
C411 net_395 0 1.304fF
C412 net_412#2 0 1.359fF
C413 net_398#6 0 1.04fF
C414 net_381#4 0 1.018fF
C415 net_390 0 1.073fF
C416 net_339#2 0 1.326fF
C417 net_286 0 0.875fF
C418 net_359#2 0 1.931fF
C419 net_390#2 0 1.832fF
C420 net_348#2 0 1.876fF
C421 net_339#4 0 1.502fF
C422 net_317#2 0 1.04fF
C423 net_330 0 1.447fF
C424 net_315 0 1.216fF
C425 net_339 0 1.326fF
C426 net_361 0 2.019fF
C427 net_317 0 1.216fF
C428 net_0#1 0 8.223fF
C429 net_0#3 0 7.959fF
C430 net_2#1 0 1.609fF
C431 net_2#3 0 2.241fF
C432 net_2#5 0 1.331fF
C433 a2 0 0.875fF
C434 sum14 0 0.787fF
C435 sum0 0 0.787fF
C436 net_8#1 0 1.873fF
C437 net_8#3 0 1.389fF
C438 net_10#1 0 1.507fF
C439 net_10#3 0 2.05fF
C440 net_10#5 0 1.419fF
C441 a0 0 0.875fF
C442 sum2 0 0.787fF
C443 sum6 0 0.787fF
C444 sum4 0 0.787fF
C445 net_17#1 0 1.562fF
C446 net_17#3 0 2.913fF
C447 net_17#5 0 2.369fF
C448 sum3 0 0.93fF
C449 net_21#1 0 1.598fF
C450 net_21#3 0 1.686fF
C451 net_23#1 0 3.693fF
C452 net_23#3 0 3.957fF
C453 net_25#1 0 7.805fF
C454 net_25#3 0 8.289fF
C455 a3 0 1.161fF
C456 net_28#1 0 1.624fF
C457 net_28#3 0 2.446fF
C458 net_28#5 0 1.896fF
C459 net_31#1 0 2.159fF
C460 net_31#3 0 1.675fF
C461 net_33#1 0 1.925fF
C462 net_33#3 0 2.101fF
C463 net_35#1 0 1.741fF
C464 net_35#3 0 2.292fF
C465 net_35#5 0 1.624fF
C466 b2 0 1.161fF
C467 net_39#1 0 1.381fF
C468 net_39#3 0 2.446fF
C469 net_39#5 0 2.138fF
C470 b0 0 1.161fF
C471 b3 0 1.304fF
C472 net_44#1 0 4.802fF
C473 net_44#3 0 5.404fF
C474 net_44#5 0 2.082fF
C475 net_47#1 0 1.8fF
C476 net_47#3 0 3.124fF
C477 net_47#5 0 4.137fF
C478 net_47#7 0 3.474fF
C479 net_51#1 0 1.91fF
C480 net_51#3 0 2.822fF
C481 net_51#5 0 2.58fF
C482 net_51#7 0 1.756fF
C483 net_55#1 0 3.308fF
C484 net_55#3 0 3.368fF
C485 net_55#5 0 3.987fF
C486 net_55#7 0 3.531fF
C487 b5#1 0 6.023fF
C488 b5 0 5.148fF
C489 net_60#1 0 1.338fF
C490 net_60#3 0 2.006fF
C491 net_60#5 0 1.455fF
C492 net_63#1 0 2.337fF
C493 net_65#1 0 4.419fF
C494 net_65#3 0 4.154fF
C495 net_67 0 6.831fF
C496 net_67#3 0 6.528fF
C497 a5#1 0 5.24fF
C498 a5 0 4.222fF
C499 net_70#1 0 1.474fF
C500 net_70#3 0 2.384fF
C501 net_70#5 0 1.753fF
C502 net_73#1 0 3.4fF
C503 net_75#1 0 10.852fF
C504 net_75#3 0 10.5fF
C505 sum1#1 0 3.239fF
C506 sum1 0 2.166fF
C507 net_78#1 0 6.717fF
C508 net_78#3 0 6.343fF
C509 net_80#1 0 3.824fF
C510 net_80#3 0 4.088fF
C511 net_82#1 0 1.829fF
C512 net_82#3 0 1.741fF
C513 sum5 0 3.284fF
C514 sum5#1 0 4.357fF
C515 net_85#1 0 1.818fF
C516 net_85#3 0 2.302fF
C517 net_87#1 0 2.656fF
C518 net_87#3 0 3.199fF
C519 net_87#5 0 1.848fF
C520 net_90#1 0 2.274fF
C521 net_90#3 0 3.686fF
C522 net_90#5 0 8.585fF
C523 net_90#7 0 8.009fF
C524 net_94#1 0 0.887fF
C525 net_94#3 0 1.883fF
C526 net_96#1 0 2.6fF
C527 net_96#3 0 3.232fF
C528 net_96#5 0 2.145fF
C529 net_99#1 0 2.182fF