*** SPICE deck for cell BrentKungFastAdder32;1{lay} from library 
*** ProyectoIntegrador
*** Created on mié sep 03, 2014 23:37:37
*** Last revised on sáb oct 18, 2014 18:37:08
*** Written on sáb oct 18, 2014 18:54:31 by Electric VLSI Design System, 
*** version 9.05
*** Layout tech: mocmos, foundry MOSIS
*** UC SPICE *** , MIN_RESIST 0.5, MIN_CAPAC 0.5FF
***    P-Active:	areacap=1.167FF/um^2,	edgecap=0.203FF/um,	res=7.5ohms/sq
***    N-Active:	areacap=0.982FF/um^2,	edgecap=0.244FF/um,	res=6.7ohms/sq
***    
*** Polysilicon-1:	areacap=0.1467FF/um^2,	edgecap=0.0608FF/um,	res=7.8ohms/sq
***    Transistor-Poly:	areacap=0.09FF/um^2,	edgecap=0.0FF/um,	res=2.5ohms/sq
***    Poly-Cut:	areacap=0.0FF/um^2,	edgecap=0.0FF/um,	res=10.5ohms/sq
***    Active-Cut:	areacap=0.0FF/um^2,	edgecap=0.0FF/um,	res=12.2ohms/sq
***    Metal-1:	areacap=0.1209FF/um^2,	edgecap=0.1104FF/um,	res=0.08ohms/sq
***    Via1:	areacap=0.0FF/um^2,	edgecap=0.0FF/um,	res=5.69ohms/sq
***    Metal-2:	areacap=0.0843FF/um^2,	edgecap=0.0974FF/um,	res=0.08ohms/sq
***    Via2:	areacap=0.0FF/um^2,	edgecap=0.0FF/um,	res=11.39ohms/sq
***    Metal-3:	areacap=0.0843FF/um^2,	edgecap=0.0974FF/um,	res=0.08ohms/sq
***    Via3:	areacap=0.0FF/um^2,	edgecap=0.0FF/um,	res=16.73ohms/sq
***    Metal-4:	areacap=0.0843FF/um^2,	edgecap=0.0974FF/um,	res=0.08ohms/sq
***    Via4:	areacap=0.0FF/um^2,	edgecap=0.0FF/um,	res=21.44ohms/sq
***    Metal-5:	areacap=0.0843FF/um^2,	edgecap=0.0974FF/um,	res=0.07ohms/sq
***    Via5:	areacap=0.0FF/um^2,	edgecap=0.0FF/um,	res=24.08ohms/sq
***    Metal-6:	areacap=0.0423FF/um^2,	edgecap=0.1273FF/um,	res=0.03ohms/sq
***    Hi-Res:	areacap=0.0FF/um^2,	edgecap=0.0FF/um,	res=1.0ohms/sq
* Model cards are described in this file:
.include /home/lean/tfinal/trabajo/models/tsmc180nm.model

*** SUBCIRCUIT ProyectoIntegrador__id FROM CELL id{lay}
.SUBCKT ProyectoIntegrador__id vss a vdd y
Mnmos_0 net_10 a#1 0 0 N L=0.2U W=0.4U AS=0.6P AD=0.3P PS=5.8U PD=2.2U
Mnmos_1 y#0 net_10#6 0 0 N L=0.2U W=0.4U AS=0.6P AD=0.3P PS=5.8U PD=2.2U
Mpmos_0 net_10#2 a#5 vdd vdd P L=0.2U W=0.8U AS=0.8P AD=0.3P PS=6.6U PD=2.2U
Mpmos_1 y#2 net_10#10 vdd vdd P L=0.2U W=0.8U AS=0.8P AD=0.3P PS=6.6U PD=2.2U
** Extracted Parasitic Capacitors ***
C0 net_10 0 0.649fF
C1 net_10#2 0 0.623fF
C2 y#0 0 0.546fF
C3 y#2 0 0.726fF
C4 net_10#4 0 1.495fF
C5 y 0 1.272fF
C6 a#3 0 0.66fF
C7 net_10#8 0 0.66fF
** Extracted Parasitic Resistors ***
R0 a#1 a#2 15.6
R1 a#3 a#2 181.35
R2 a#4 a#3 157.95
R3 a a#3 1.95
R4 a#5 a#4 15.6
R5 net_10#6 net_10#7 15.6
R6 net_10#8 net_10#7 181.35
R7 net_10#9 net_10#8 157.95
R8 net_10#4 net_10#8 1.95
R9 net_10#10 net_10#9 15.6
R10 y#2 y 1.507
R11 net_10#2 net_10#4 1.293
R12 net_10#4 net_10 1.347
R13 y#0 y 1.133
.ENDS ProyectoIntegrador__id

*** SUBCIRCUIT ProyectoIntegrador__xor2 FROM CELL xor2{lay}
.SUBCKT ProyectoIntegrador__xor2 vss a b vdd y
Mnmos_0 net_79 a#9 0 0 N L=0.2U W=0.4U AS=0.44P AD=0.088P PS=4.2U PD=0.85U
Mnmos_1 net_76 net_160#11 y#0 0 N L=0.2U W=0.4U AS=0.12P AD=0.088P PS=1U 
+PD=0.85U
Mnmos_2 0 net_270#10 net_76 0 N L=0.2U W=0.4U AS=0.088P AD=0.44P PS=0.85U 
+PD=4.2U
Mnmos_3 y#0 b#5 net_79 0 N L=0.2U W=0.4U AS=0.088P AD=0.12P PS=0.85U PD=1U
Mnmos_4 net_160#12 b#0 0 0 N L=0.2U W=0.4U AS=0.44P AD=0.2P PS=4.2U PD=1.8U
Mnmos_5 0 a#5 net_270#2 0 N L=0.2U W=0.4U AS=0.2P AD=0.44P PS=1.8U PD=4.2U
Mpmos_0 net_68 net_270#12 vdd vdd P L=0.2U W=0.4U AS=0.44P AD=0.088P PS=4.2U 
+PD=0.85U
Mpmos_1 y b#11 net_68 vdd P L=0.2U W=0.4U AS=0.088P AD=0.12P PS=0.85U PD=1U
Mpmos_2 net_70 net_160#5 y vdd P L=0.2U W=0.4U AS=0.12P AD=0.088P PS=1U 
+PD=0.85U
Mpmos_4 vdd a#12 net_70 vdd P L=0.2U W=0.4U AS=0.088P AD=0.44P PS=0.85U 
+PD=4.2U
Mpmos_5 vdd a#1 net_270 vdd P L=0.2U W=0.4U AS=0.2P AD=0.44P PS=1.8U PD=4.2U
Mpmos_6 net_160 b#13 vdd vdd P L=0.2U W=0.4U AS=0.44P AD=0.2P PS=4.2U PD=1.8U
** Extracted Parasitic Capacitors ***
C0 y#0 0 1.163fF
C1 y 0 1.163fF
C2 a#0 0 0.628fF
C3 net_160#12 0 0.594fF
C4 net_160 0 0.708fF
C5 a 0 1.289fF
C6 b 0 0.563fF
C7 net_270 0 1.519fF
C8 net_270#1 0 1.247fF
C9 net_160#2 0 1.373fF
C10 net_270#4 0 0.653fF
C11 b#2 0 0.691fF
C12 b#8 0 0.509fF
** Extracted Parasitic Resistors ***
R0 y y#0 2.413
R1 a#0 a 0.76
R2 a#1 a#2 15.6
R3 a#2 a#2##0 118.95
R4 a#2##0 a 118.95
R5 a#4 a#5 15.6
R6 a a#4 117
R7 b#0 b#1 31.2
R8 b#1 b#2 183.3
R9 b#2 b#4 171.6
R10 b b#2 1.95
R11 net_270 net_270#1 1.107
R12 net_270#1 net_270#2 0.653
R13 net_160#2 net_160 1.467
R14 net_160#2 net_160#4 0.6
R15 net_270#3 net_270#4 68.25
R16 net_270#7 net_270 1.95
R17 net_270#1 net_270#4 1.08
R18 a#0 a#0##0 101.4
R19 a#0##0 a#8 101.4
R20 b#5 b#6 39
R21 b#6 b#7 7.8
R22 b#7 b#8 142.35
R23 b#9 b#10 7.8
R24 b#10 b#11 54.6
R25 net_160#5 net_160#6 74.1
R26 net_160#6 net_160#7 7.8
R27 net_160#7 net_160#8 130.65
R28 net_160#9 net_160#10 7.8
R29 net_160#10 net_160#11 58.5
R30 b b#12 0.547
R31 b#8 b#9 118.95
R32 b#12 b#8 1.95
R33 net_160#8 net_160#9 91.65
R34 net_160#4 net_160#8 1.95
R35 net_160#12 net_160#2 1.16
R36 net_270#10 net_270#11 19.5
R37 net_270#11 net_270#3 31.2
R38 a#9 a#10 19.5
R39 a#10 a#11 15.6
R40 a#11 a 101.4
R41 net_270#12 net_270#13 35.1
R42 net_270#13 net_270#14 15.6
R43 net_270#14 net_270 76.05
R44 a#12 a#13 35.1
R45 a#13 a#8 15.6
R46 b#13 b#4 31.2
.ENDS ProyectoIntegrador__xor2

*** SUBCIRCUIT ProyectoIntegrador__and2 FROM CELL and2{lay}
.SUBCKT ProyectoIntegrador__and2 vss a b vdd y
Mnmos_0 net_121 b#7 net_149 0 N L=0.2U W=0.4U AS=0.088P AD=0.147P PS=0.85U 
+PD=1.267U
Mnmos_1 net_149 a#5 0 0 N L=0.2U W=0.4U AS=0.68P AD=0.088P PS=6.6U PD=0.85U
Mnmos_2 y#0 net_121#13 0 0 N L=0.2U W=0.4U AS=0.68P AD=0.3P PS=6.6U PD=2.2U
Mpmos_0 vdd b#1 net_121#2 vdd P L=0.2U W=0.4U AS=0.147P AD=0.587P PS=1.267U 
+PD=5.267U
Mpmos_1 net_121#2 a#1 vdd vdd P L=0.2U W=0.4U AS=0.587P AD=0.147P PS=5.267U 
+PD=1.267U
Mpmos_2 y#2 net_121#7 vdd vdd P L=0.2U W=0.8U AS=0.587P AD=0.3P PS=5.267U 
+PD=2.2U
** Extracted Parasitic Capacitors ***
C0 net_121 0 0.797fF
C1 net_121#2 0 0.514fF
C2 y#0 0 0.546fF
C3 y#2 0 0.726fF
C4 y 0 1.272fF
C5 net_121#3 0 2.19fF
C6 b#4 0 0.615fF
C7 a#3 0 0.518fF
** Extracted Parasitic Resistors ***
R0 a#1 a#2 15.6
R1 a#2 a#2##0 133.575
R2 a#2##0 a#3 133.575
R3 b#1 b#2 19.5
R4 b#2 b#3 15.6
R5 b#3 b#4 156
R6 b#5 b#6 7.8
R7 b#6 b#7 19.5
R8 b#4 b#5 159.9
R9 b b#4 1.95
R10 a#3 a#4 87.75
R11 a#3 a 1.95
R12 a#4 a#5 15.6
R13 net_121#2 net_121#3 1.067
R14 y#2 y 1.507
R15 y y#0 1.133
R16 net_121#7 net_121#8 15.6
R17 net_121#3 net_121 1.547
R18 net_121#11 net_121#11##0 106.275
R19 net_121#11##0 net_121#3 106.275
R20 net_121#3 net_121#8 126.75
R21 net_121#11 net_121#13 15.6
.ENDS ProyectoIntegrador__and2

*** SUBCIRCUIT ProyectoIntegrador__or2 FROM CELL or2{lay}
.SUBCKT ProyectoIntegrador__or2 vss a b vdd y
Mnmos_0 net_56#2 a#1 0 0 N L=0.2U W=0.4U AS=0.52P AD=0.147P PS=5U PD=1.267U
Mnmos_1 0 b#3 net_56#2 0 N L=0.2U W=0.4U AS=0.147P AD=0.52P PS=1.267U PD=5U
Mnmos_2 y#0 net_56#9 0 0 N L=0.2U W=0.4U AS=0.52P AD=0.3P PS=5U PD=2.2U
Mpmos_0 net_55 a#3 vdd vdd P L=0.2U W=0.4U AS=0.78P AD=0.088P PS=7U PD=0.85U
Mpmos_1 net_56 b#1 net_55 vdd P L=0.2U W=0.4U AS=0.088P AD=0.147P PS=0.85U 
+PD=1.267U
Mpmos_2 y#2 net_56#14 vdd vdd P L=0.2U W=0.8U AS=0.78P AD=0.3P PS=7U PD=2.2U
** Extracted Parasitic Capacitors ***
C0 net_56 0 0.688fF
C1 y#0 0 0.546fF
C2 y#2 0 0.726fF
C3 net_56#13 0 1.116fF
C4 y 0 1.272fF
C5 a#5 0 0.513fF
C6 net_56#6 0 0.848fF
C7 net_56#11 0 0.66fF
** Extracted Parasitic Resistors ***
R0 a#1 a#2 15.6
R1 a#3 a#4 15.6
R2 a#4 a#5 79.95
R3 b#1 b#2 19.5
R4 b#3 b#4 19.5
R5 b#2 b#5 7.8
R6 b#5 b#6 89.7
R7 b#7 b#4 15.6
R8 a#5 a#5##0 137.475
R9 a#5##0 a#2 137.475
R10 a#5 a 1.95
R11 b#6 b#6##0 113.1
R12 b#6##0 b#7 113.1
R13 b#6 b 1.95
R14 net_56#2 net_56#6 0.693
R15 net_56#9 net_56#10 15.6
R16 net_56#11 net_56#10 181.35
R17 net_56#12 net_56#11 157.95
R18 net_56#13 net_56#11 1.95
R19 y#2 y 1.507
R20 y y#0 1.133
R21 net_56#14 net_56#12 15.6
R22 net_56#6 net_56#13 0.64
R23 net_56#13 net_56 1.293
.ENDS ProyectoIntegrador__or2

*** TOP LEVEL CELL: BrentKungFastAdder32;1{lay}
Xc_cout 0 net_39 vdd cout#0 ProyectoIntegrador__id
Xc_sum0 0 net_795#2 vdd sum0#0 ProyectoIntegrador__id
Xc_sum1 0 net_800#2 vdd sum1#0 ProyectoIntegrador__id
Xc_sum2 0 net_913 vdd sum2#0 ProyectoIntegrador__id
Xc_sum3 0 net_876#2 vdd sum3#0 ProyectoIntegrador__id
Xc_sum4 0 net_580#2 vdd sum4#0 ProyectoIntegrador__id
Xc_sum5 0 net_871 vdd sum5#0 ProyectoIntegrador__id
Xc_sum6 0 net_867#2 vdd sum6#0 ProyectoIntegrador__id
Xc_sum7 0 net_765#2 vdd sum7#0 ProyectoIntegrador__id
Xc_sum8 0 net_852#2 vdd sum8#0 ProyectoIntegrador__id
Xc_sum9 0 net_726 vdd sum9#0 ProyectoIntegrador__id
Xc_sum10 0 net_611 vdd sum10#0 ProyectoIntegrador__id
Xc_sum11 0 net_662 vdd sum11#0 ProyectoIntegrador__id
Xc_sum12 0 net_613 vdd sum12#0 ProyectoIntegrador__id
Xc_sum13 0 net_583#2 vdd sum13#0 ProyectoIntegrador__id
Xc_sum14 0 net_568#2 vdd sum14#0 ProyectoIntegrador__id
Xc_sum15 0 net_482#2 vdd sum15#0 ProyectoIntegrador__id
Xc_sum16 0 net_121#2 vdd sum16#0 ProyectoIntegrador__id
Xc_sum17 0 net_345 vdd sum17#0 ProyectoIntegrador__id
Xc_sum18 0 net_471 vdd sum18#0 ProyectoIntegrador__id
Xc_sum19 0 net_459 vdd sum19#0 ProyectoIntegrador__id
Xc_sum20 0 net_5 vdd sum20#0 ProyectoIntegrador__id
Xc_sum21 0 net_23 vdd sum21#0 ProyectoIntegrador__id
Xc_sum22 0 net_64 vdd sum22#0 ProyectoIntegrador__id
Xc_sum23 0 net_209 vdd sum23#0 ProyectoIntegrador__id
Xc_sum24 0 net_243 vdd sum24#0 ProyectoIntegrador__id
Xc_sum25 0 net_168#2 vdd sum25#0 ProyectoIntegrador__id
Xc_sum26 0 net_433 vdd sum26#0 ProyectoIntegrador__id
Xc_sum27 0 net_469 vdd sum27#0 ProyectoIntegrador__id
Xc_sum28 0 net_150 vdd sum28#0 ProyectoIntegrador__id
Xc_sum29 0 net_295#2 vdd sum29#0 ProyectoIntegrador__id
Xc_sum30 0 net_282#2 vdd sum30#0 ProyectoIntegrador__id
Xc_sum31 0 net_301#2 vdd sum31#0 ProyectoIntegrador__id
Xc_w1 0 net_797#4 net_828#4 vdd net_795 ProyectoIntegrador__xor2
Xc_w2 0 a0#0 vdd net_797 ProyectoIntegrador__id
Xc_w3 0 b0#0 vdd net_828 ProyectoIntegrador__id
Xc_w4 0 net_842#4 net_816#2 vdd net_800 ProyectoIntegrador__xor2
Xc_w5 0 net_845#4 net_854#4 vdd net_842 ProyectoIntegrador__xor2
Xc_w6 0 a1#0 vdd net_845 ProyectoIntegrador__id
Xc_w7 0 b1#0 vdd net_854 ProyectoIntegrador__id
Xc_w8 0 net_797#2 net_828#2 vdd net_816#4 ProyectoIntegrador__and2
Xc_w9 0 net_903#2 net_890 vdd net_913#2 ProyectoIntegrador__xor2
Xc_w10 0 net_919#2 net_804#2 vdd net_903 ProyectoIntegrador__xor2
Xc_w11 0 a2#0 vdd net_919 ProyectoIntegrador__id
Xc_w12 0 b2#0 vdd net_804 ProyectoIntegrador__id
Xc_w13 0 net_819 net_802 vdd net_890#4 ProyectoIntegrador__or2
Xc_w14 0 net_845#2 net_854#2 vdd net_819#2 ProyectoIntegrador__and2
Xc_w15 0 net_842#2 net_816 vdd net_802#2 ProyectoIntegrador__and2
Xc_w16 0 net_886#4 net_860#2 vdd net_876 ProyectoIntegrador__xor2
Xc_w17 0 net_857 net_873 vdd net_886#6 ProyectoIntegrador__xor2
Xc_w18 0 a3#0 vdd net_857#4 ProyectoIntegrador__id
Xc_w19 0 b3#0 vdd net_873#4 ProyectoIntegrador__id
Xc_w20 0 net_878#4 net_911#2 vdd net_860 ProyectoIntegrador__or2
Xc_w21 0 net_919#4 net_804#4 vdd net_878 ProyectoIntegrador__and2
Xc_w22 0 net_903#4 net_890#2 vdd net_911 ProyectoIntegrador__and2
Xc_w23 0 net_809#6 net_831#4 vdd net_580#8 ProyectoIntegrador__xor2
Xc_w24 0 net_813#4 net_825#4 vdd net_809 ProyectoIntegrador__xor2
Xc_w25 0 a4#0 vdd net_813#2 ProyectoIntegrador__id
Xc_w26 0 b4#0 vdd net_825#2 ProyectoIntegrador__id
Xc_w27 0 net_807 net_898 vdd net_831#6 ProyectoIntegrador__or2
Xc_w28 0 net_848 net_862 vdd net_807#2 ProyectoIntegrador__or2
Xc_w29 0 net_857#2 net_873#2 vdd net_848#2 ProyectoIntegrador__and2
Xc_w30 0 net_886#2 net_878#2 vdd net_862#2 ProyectoIntegrador__and2
Xc_w31 0 net_917 net_890#6 vdd net_898#2 ProyectoIntegrador__and2
Xc_w32 0 net_886 net_903#6 vdd net_917#2 ProyectoIntegrador__and2
Xc_w33 0 net_821#2 net_869 vdd net_871#2 ProyectoIntegrador__xor2
Xc_w34 0 net_700 net_719 vdd net_821#6 ProyectoIntegrador__xor2
Xc_w35 0 a5#0 vdd net_700#4 ProyectoIntegrador__id
Xc_w36 0 b5#0 vdd net_719#4 ProyectoIntegrador__id
Xc_w37 0 net_839#2 net_915 vdd net_869#2 ProyectoIntegrador__or2
Xc_w38 0 net_813 net_825 vdd net_839 ProyectoIntegrador__and2
Xc_w39 0 net_809#4 net_831#2 vdd net_915#2 ProyectoIntegrador__and2
Xc_w40 0 net_740#4 net_900 vdd net_867 ProyectoIntegrador__xor2
Xc_w41 0 net_757#2 net_782#2 vdd net_740 ProyectoIntegrador__xor2
Xc_w42 0 a6#0 vdd net_757 ProyectoIntegrador__id
Xc_w43 0 b6#0 vdd net_782 ProyectoIntegrador__id
Xc_w44 0 net_836#4 net_907 vdd net_900#4 ProyectoIntegrador__or2
Xc_w45 0 net_894 net_909#2 vdd net_836#2 ProyectoIntegrador__or2
Xc_w46 0 net_700#2 net_719#2 vdd net_894#2 ProyectoIntegrador__and2
Xc_w47 0 net_821#4 net_839#4 vdd net_909 ProyectoIntegrador__and2
Xc_w48 0 net_864#4 net_831 vdd net_907#2 ProyectoIntegrador__and2
Xc_w49 0 net_821 net_809#2 vdd net_864#2 ProyectoIntegrador__and2
Xc_w50 0 net_753#4 net_788#2 vdd net_765 ProyectoIntegrador__xor2
Xc_w51 0 net_750 net_762 vdd net_753#6 ProyectoIntegrador__xor2
Xc_w52 0 a7#0 vdd net_750#4 ProyectoIntegrador__id
Xc_w53 0 b7#0 vdd net_762#4 ProyectoIntegrador__id
Xc_w54 0 net_767#4 net_780#2 vdd net_788 ProyectoIntegrador__or2
Xc_w55 0 net_757#4 net_782#4 vdd net_767 ProyectoIntegrador__and2
Xc_w56 0 net_740#6 net_900#2 vdd net_780 ProyectoIntegrador__and2
Xc_w57 0 net_776#6 net_706#2 vdd net_852 ProyectoIntegrador__xor2
Xc_w58 0 net_716#4 net_728#4 vdd net_776 ProyectoIntegrador__xor2
Xc_w59 0 a8#0 vdd net_716 ProyectoIntegrador__id
Xc_w60 0 b8#0 vdd net_728 ProyectoIntegrador__id
Xc_w61 0 net_736#2 net_774 vdd net_706#4 ProyectoIntegrador__or2
Xc_w62 0 net_703#2 net_881#2 vdd net_736 ProyectoIntegrador__or2
Xc_w63 0 net_731#2 net_738#2 vdd net_703 ProyectoIntegrador__or2
Xc_w64 0 net_750#2 net_762#2 vdd net_731 ProyectoIntegrador__and2
Xc_w65 0 net_753#2 net_767#2 vdd net_738 ProyectoIntegrador__and2
Xc_w66 0 net_883#4 net_836 vdd net_881 ProyectoIntegrador__and2
Xc_w67 0 net_753 net_740#2 vdd net_883#2 ProyectoIntegrador__and2
Xc_w68 0 net_896#2 net_831#8 vdd net_774#2 ProyectoIntegrador__and2
Xc_w69 0 net_883 net_864 vdd net_896 ProyectoIntegrador__and2
Xc_w70 0 net_681#2 net_714 vdd net_726#2 ProyectoIntegrador__xor2
Xc_w71 0 net_697#4 net_685#4 vdd net_681 ProyectoIntegrador__xor2
Xc_w72 0 a9#0 vdd net_697 ProyectoIntegrador__id
Xc_w73 0 b9#0 vdd net_685 ProyectoIntegrador__id
Xc_w74 0 net_694#2 net_712 vdd net_714#2 ProyectoIntegrador__or2
Xc_w75 0 net_716#2 net_728#2 vdd net_694 ProyectoIntegrador__and2
Xc_w76 0 net_776#4 net_706 vdd net_712#2 ProyectoIntegrador__and2
Xc_w77 0 net_623#2 net_723 vdd net_611#2 ProyectoIntegrador__xor2
Xc_w78 0 net_601#2 net_643#2 vdd net_623 ProyectoIntegrador__xor2
Xc_w79 0 a10#0 vdd net_601 ProyectoIntegrador__id
Xc_w80 0 b10#0 vdd net_643 ProyectoIntegrador__id
Xc_w81 0 net_771#4 net_745#2 vdd net_723#4 ProyectoIntegrador__or2
Xc_w82 0 net_790#2 net_786#2 vdd net_771 ProyectoIntegrador__or2
Xc_w83 0 net_697#2 net_685#2 vdd net_790 ProyectoIntegrador__and2
Xc_w84 0 net_681#4 net_694#4 vdd net_786 ProyectoIntegrador__and2
Xc_w85 0 net_691#4 net_706#6 vdd net_745 ProyectoIntegrador__and2
Xc_w86 0 net_681#6 net_776#2 vdd net_691 ProyectoIntegrador__and2
Xc_w87 0 net_649 net_668 vdd net_662#2 ProyectoIntegrador__xor2
Xc_w88 0 net_657 net_620 vdd net_649#6 ProyectoIntegrador__xor2
Xc_w89 0 a11#0 vdd net_657#4 ProyectoIntegrador__id
Xc_w90 0 b11#0 vdd net_620#4 ProyectoIntegrador__id
Xc_w91 0 net_640#2 net_660 vdd net_668#2 ProyectoIntegrador__or2
Xc_w92 0 net_601#4 net_643#4 vdd net_640 ProyectoIntegrador__and2
Xc_w93 0 net_623#4 net_723#2 vdd net_660#2 ProyectoIntegrador__and2
Xc_w94 0 net_664#4 net_532#2 vdd net_613#2 ProyectoIntegrador__xor2
Xc_w95 0 net_594#2 net_538#2 vdd net_664 ProyectoIntegrador__xor2
Xc_w96 0 a12#0 vdd net_594 ProyectoIntegrador__id
Xc_w97 0 b12#0 vdd net_538 ProyectoIntegrador__id
Xc_w98 0 net_633#4 net_689#2 vdd net_532#6 ProyectoIntegrador__or2
Xc_w99 0 net_636#2 net_734#2 vdd net_633 ProyectoIntegrador__or2
Xc_w100 0 net_647#2 net_638#2 vdd net_636 ProyectoIntegrador__or2
Xc_w101 0 net_657#2 net_620#2 vdd net_647 ProyectoIntegrador__and2
Xc_w102 0 net_649#2 net_640#4 vdd net_638 ProyectoIntegrador__and2
Xc_w103 0 net_747#4 net_771#2 vdd net_734 ProyectoIntegrador__and2
Xc_w104 0 net_649#4 net_623#6 vdd net_747#2 ProyectoIntegrador__and2
Xc_w105 0 net_678#2 net_706#8 vdd net_689 ProyectoIntegrador__and2
Xc_w106 0 net_747 net_691#2 vdd net_678 ProyectoIntegrador__and2
Xc_w107 0 net_564#4 net_576#2 vdd net_583 ProyectoIntegrador__xor2
Xc_w108 0 net_573 net_561 vdd net_564#6 ProyectoIntegrador__xor2
Xc_w109 0 a13#0 vdd net_573#4 ProyectoIntegrador__id
Xc_w110 0 b13#0 vdd net_561#4 ProyectoIntegrador__id
Xc_w111 0 net_591#4 net_578#2 vdd net_576 ProyectoIntegrador__or2
Xc_w112 0 net_594#4 net_538#4 vdd net_591 ProyectoIntegrador__and2
Xc_w113 0 net_664#6 net_532#4 vdd net_578 ProyectoIntegrador__and2
Xc_w114 0 net_541#4 net_548#2 vdd net_568 ProyectoIntegrador__xor2
Xc_w115 0 net_479#2 net_528#2 vdd net_541#6 ProyectoIntegrador__xor2
Xc_w116 0 a14#0 vdd net_479#4 ProyectoIntegrador__id
Xc_w117 0 b14#0 vdd net_528#4 ProyectoIntegrador__id
Xc_w118 0 net_653 net_554 vdd net_548#4 ProyectoIntegrador__or2
Xc_w119 0 net_552 net_604 vdd net_653#4 ProyectoIntegrador__or2
Xc_w120 0 net_573#2 net_561#2 vdd net_552#2 ProyectoIntegrador__and2
Xc_w121 0 net_564#2 net_591#2 vdd net_604#2 ProyectoIntegrador__and2
Xc_w122 0 net_627 net_532 vdd net_554#2 ProyectoIntegrador__and2
Xc_w123 0 net_564 net_664#2 vdd net_627#4 ProyectoIntegrador__and2
Xc_w124 0 net_556#4 net_484#2 vdd net_482 ProyectoIntegrador__xor2
Xc_w125 0 net_476#2 net_522#2 vdd net_556#6 ProyectoIntegrador__xor2
Xc_w126 0 a15#0 vdd net_476#4 ProyectoIntegrador__id
Xc_w127 0 b15#0 vdd net_522#4 ProyectoIntegrador__id
Xc_w128 0 net_597#2 net_570 vdd net_484 ProyectoIntegrador__or2
Xc_w129 0 net_479 net_528 vdd net_597#4 ProyectoIntegrador__and2
Xc_w130 0 net_541#2 net_548 vdd net_570#2 ProyectoIntegrador__and2
Xc_w131 0 net_270#6 net_372#10 vdd net_121#5 ProyectoIntegrador__xor2
Xc_w132 0 net_359#2 net_347#2 vdd net_270 ProyectoIntegrador__xor2
Xc_w133 0 a16#0 vdd net_359 ProyectoIntegrador__id
Xc_w134 0 b16#0 vdd net_347 ProyectoIntegrador__id
Xc_w135 0 net_252 net_428#2 vdd net_372#12 ProyectoIntegrador__or2
Xc_w136 0 net_420#2 net_417#2 vdd net_252#2 ProyectoIntegrador__or2
Xc_w137 0 net_536#2 net_606 vdd net_420#5 ProyectoIntegrador__or2
Xc_w138 0 net_630#2 net_608#2 vdd net_536 ProyectoIntegrador__or2
Xc_w139 0 net_476 net_522 vdd net_630 ProyectoIntegrador__and2
Xc_w140 0 net_556 net_597 vdd net_608 ProyectoIntegrador__and2
Xc_w141 0 net_585#2 net_653#2 vdd net_606#2 ProyectoIntegrador__and2
Xc_w142 0 net_556#2 net_541 vdd net_585 ProyectoIntegrador__and2
Xc_w143 0 net_545#2 net_633#2 vdd net_417#5 ProyectoIntegrador__and2
Xc_w144 0 net_585#4 net_627#2 vdd net_545 ProyectoIntegrador__and2
Xc_w145 0 net_672 net_706#10 vdd net_428#8 ProyectoIntegrador__and2
Xc_w146 0 net_545#4 net_678#4 vdd net_672#2 ProyectoIntegrador__and2
Xc_w147 0 net_363#2 net_398 vdd net_345#2 ProyectoIntegrador__xor2
Xc_w148 0 net_274#2 net_292#2 vdd net_363 ProyectoIntegrador__xor2
Xc_w149 0 a17#0 vdd net_274 ProyectoIntegrador__id
Xc_w150 0 b17#0 vdd net_292 ProyectoIntegrador__id
Xc_w151 0 net_356#2 net_343 vdd net_398#2 ProyectoIntegrador__or2
Xc_w152 0 net_359#4 net_347#4 vdd net_356 ProyectoIntegrador__and2
Xc_w153 0 net_270#4 net_372#8 vdd net_343#2 ProyectoIntegrador__and2
Xc_w154 0 net_408#4 net_504#4 vdd net_471#2 ProyectoIntegrador__xor2
Xc_w155 0 net_461#4 net_507#4 vdd net_408 ProyectoIntegrador__xor2
Xc_w156 0 a18#0 vdd net_461 ProyectoIntegrador__id
Xc_w157 0 b18#0 vdd net_507 ProyectoIntegrador__id
Xc_w158 0 net_287#4 net_351#2 vdd net_504 ProyectoIntegrador__or2
Xc_w159 0 net_290#2 net_396#2 vdd net_287 ProyectoIntegrador__or2
Xc_w160 0 net_274#4 net_292#4 vdd net_290 ProyectoIntegrador__and2
Xc_w161 0 net_363#4 net_356#4 vdd net_396 ProyectoIntegrador__and2
Xc_w162 0 net_353#4 net_372#6 vdd net_351 ProyectoIntegrador__and2
Xc_w163 0 net_363#6 net_270#2 vdd net_353 ProyectoIntegrador__and2
Xc_w164 0 net_455 net_437 vdd net_459#2 ProyectoIntegrador__xor2
Xc_w165 0 net_414 net_405 vdd net_455#6 ProyectoIntegrador__xor2
Xc_w166 0 a19#0 vdd net_414#4 ProyectoIntegrador__id
Xc_w167 0 b19#0 vdd net_405#4 ProyectoIntegrador__id
Xc_w168 0 net_444#2 net_435 vdd net_437#2 ProyectoIntegrador__or2
Xc_w169 0 net_461#2 net_507#2 vdd net_444 ProyectoIntegrador__and2
Xc_w170 0 net_408#2 net_504#2 vdd net_435#2 ProyectoIntegrador__and2
Xc_w171 0 net_102 net_98 vdd net_5#2 ProyectoIntegrador__xor2
Xc_w172 0 net_71 net_84 vdd net_102#6 ProyectoIntegrador__xor2
Xc_w173 0 a20#0 vdd net_71#4 ProyectoIntegrador__id
Xc_w174 0 b20#0 vdd net_84#4 ProyectoIntegrador__id
Xc_w175 0 net_74 net_230#2 vdd net_98#6 ProyectoIntegrador__or2
Xc_w176 0 net_87 net_235#2 vdd net_74#4 ProyectoIntegrador__or2
Xc_w177 0 net_207#2 net_201#2 vdd net_87#2 ProyectoIntegrador__or2
Xc_w178 0 net_414#2 net_405#2 vdd net_207#8 ProyectoIntegrador__and2
Xc_w179 0 net_455#2 net_444#4 vdd net_201#8 ProyectoIntegrador__and2
Xc_w180 0 net_489#2 net_287#2 vdd net_235#5 ProyectoIntegrador__and2
Xc_w181 0 net_455#4 net_408#6 vdd net_489#4 ProyectoIntegrador__and2
Xc_w182 0 net_368#2 net_372#4 vdd net_230 ProyectoIntegrador__and2
Xc_w183 0 net_489 net_353#2 vdd net_368#4 ProyectoIntegrador__and2
Xc_w184 0 net_92#2 net_49 vdd net_23#2 ProyectoIntegrador__xor2
Xc_w185 0 net_25#2 net_52#2 vdd net_92 ProyectoIntegrador__xor2
Xc_w186 0 a21#0 vdd net_25 ProyectoIntegrador__id
Xc_w187 0 b21#0 vdd net_52 ProyectoIntegrador__id
Xc_w188 0 net_20 net_96 vdd net_49#2 ProyectoIntegrador__or2
Xc_w189 0 net_71#2 net_84#2 vdd net_20#4 ProyectoIntegrador__and2
Xc_w190 0 net_102#2 net_98#2 vdd net_96#2 ProyectoIntegrador__and2
Xc_w191 0 net_66#4 net_41#2 vdd net_64#2 ProyectoIntegrador__xor2
Xc_w192 0 net_14#2 net_81#2 vdd net_66 ProyectoIntegrador__xor2
Xc_w193 0 a22#0 vdd net_14 ProyectoIntegrador__id
Xc_w194 0 b22#0 vdd net_81 ProyectoIntegrador__id
Xc_w195 0 net_44#4 net_77#2 vdd net_41 ProyectoIntegrador__or2
Xc_w196 0 net_79#2 net_47#2 vdd net_44 ProyectoIntegrador__or2
Xc_w197 0 net_25#4 net_52#4 vdd net_79 ProyectoIntegrador__and2
Xc_w198 0 net_92#4 net_20#2 vdd net_47 ProyectoIntegrador__and2
Xc_w199 0 net_89#4 net_98#4 vdd net_77 ProyectoIntegrador__and2
Xc_w200 0 net_92#6 net_102#4 vdd net_89 ProyectoIntegrador__and2
Xc_w201 0 net_203#6 net_196#2 vdd net_209#2 ProyectoIntegrador__xor2
Xc_w202 0 net_182#4 net_198#4 vdd net_203#4 ProyectoIntegrador__xor2
Xc_w203 0 a23#0 vdd net_182 ProyectoIntegrador__id
Xc_w204 0 b23#0 vdd net_198 ProyectoIntegrador__id
Xc_w205 0 net_11#4 net_0#2 vdd net_196 ProyectoIntegrador__or2
Xc_w206 0 net_14#4 net_81#4 vdd net_11 ProyectoIntegrador__and2
Xc_w207 0 net_66#6 net_41#4 vdd net_0 ProyectoIntegrador__and2
Xc_w208 0 net_124#2 net_140#6 vdd net_243#2 ProyectoIntegrador__xor2
Xc_w209 0 net_165 net_185 vdd net_124#6 ProyectoIntegrador__xor2
Xc_w210 0 a24#0 vdd net_165#4 ProyectoIntegrador__id
Xc_w211 0 b24#0 vdd net_185#4 ProyectoIntegrador__id
Xc_w212 0 net_232#4 net_115 vdd net_140 ProyectoIntegrador__or2
Xc_w213 0 net_155 net_226 vdd net_232 ProyectoIntegrador__or2
Xc_w214 0 net_153 net_213#2 vdd net_155#2 ProyectoIntegrador__or2
Xc_w215 0 net_219 net_211 vdd net_153#2 ProyectoIntegrador__or2
Xc_w216 0 net_182#2 net_198#2 vdd net_219#2 ProyectoIntegrador__and2
Xc_w217 0 net_203#2 net_11#2 vdd net_211#2 ProyectoIntegrador__and2
Xc_w218 0 net_2#2 net_44#2 vdd net_213 ProyectoIntegrador__and2
Xc_w219 0 net_203 net_66#2 vdd net_2#4 ProyectoIntegrador__and2
Xc_w220 0 net_221#4 net_74#2 vdd net_226#2 ProyectoIntegrador__and2
Xc_w221 0 net_2 net_89#2 vdd net_221#2 ProyectoIntegrador__and2
Xc_w222 0 net_112 net_372 vdd net_115#2 ProyectoIntegrador__and2
Xc_w223 0 net_221 net_368 vdd net_112#2 ProyectoIntegrador__and2
Xc_w224 0 net_239#6 net_170#2 vdd net_168 ProyectoIntegrador__xor2
Xc_w225 0 net_33#2 net_60#2 vdd net_239 ProyectoIntegrador__xor2
Xc_w226 0 a25#0 vdd net_33 ProyectoIntegrador__id
Xc_w227 0 b25#0 vdd net_60 ProyectoIntegrador__id
Xc_w228 0 net_137#2 net_107#2 vdd net_170 ProyectoIntegrador__or2
Xc_w229 0 net_165#2 net_185#2 vdd net_137#4 ProyectoIntegrador__and2
Xc_w230 0 net_124#4 net_140#8 vdd net_107 ProyectoIntegrador__and2
Xc_w231 0 net_448#4 net_254#7 vdd net_433#2 ProyectoIntegrador__xor2
Xc_w232 0 net_441#4 net_452#4 vdd net_448 ProyectoIntegrador__xor2
Xc_w233 0 a26#0 vdd net_441 ProyectoIntegrador__id
Xc_w234 0 b26#0 vdd net_452 ProyectoIntegrador__id
Xc_w235 0 net_188 net_174 vdd net_254#2 ProyectoIntegrador__or2
Xc_w236 0 net_237#2 net_172 vdd net_188#4 ProyectoIntegrador__or2
Xc_w237 0 net_33#4 net_60#4 vdd net_237 ProyectoIntegrador__and2
Xc_w238 0 net_239#4 net_137 vdd net_172#2 ProyectoIntegrador__and2
Xc_w239 0 net_245 net_140#4 vdd net_174#2 ProyectoIntegrador__and2
Xc_w240 0 net_239#2 net_124 vdd net_245#4 ProyectoIntegrador__and2
Xc_w241 0 net_465 net_500 vdd net_469#2 ProyectoIntegrador__xor2
Xc_w242 0 net_422#2 net_430 vdd net_465#6 ProyectoIntegrador__xor2
Xc_w243 0 a27#0 vdd net_422 ProyectoIntegrador__id
Xc_w244 0 b27#0 vdd net_430#2 ProyectoIntegrador__id
Xc_w245 0 net_486#2 net_498 vdd net_500#2 ProyectoIntegrador__or2
Xc_w246 0 net_441#2 net_452#2 vdd net_486 ProyectoIntegrador__and2
Xc_w247 0 net_448#2 net_254#5 vdd net_498#2 ProyectoIntegrador__and2
Xc_w248 0 net_224#7 net_325#2 vdd net_150#5 ProyectoIntegrador__xor2
Xc_w249 0 net_29#2 net_56#2 vdd net_224#2 ProyectoIntegrador__xor2
Xc_w250 0 a28#0 vdd net_29 ProyectoIntegrador__id
Xc_w251 0 b28#0 vdd net_56 ProyectoIntegrador__id
Xc_w252 0 net_191#2 net_130#2 vdd net_325#6 ProyectoIntegrador__or2
Xc_w253 0 net_176 net_128 vdd net_191#4 ProyectoIntegrador__or2
Xc_w254 0 net_323 net_337#2 vdd net_176#2 ProyectoIntegrador__or2
Xc_w255 0 net_422#4 net_430#4 vdd net_323#2 ProyectoIntegrador__and2
Xc_w256 0 net_465#2 net_486#4 vdd net_337#5 ProyectoIntegrador__and2
Xc_w257 0 net_320#2 net_188#2 vdd net_128#2 ProyectoIntegrador__and2
Xc_w258 0 net_465#4 net_448#6 vdd net_320#7 ProyectoIntegrador__and2
Xc_w259 0 net_109#2 net_140#2 vdd net_130 ProyectoIntegrador__and2
Xc_w260 0 net_320#4 net_245#2 vdd net_109#4 ProyectoIntegrador__and2
Xc_w261 0 net_264#4 net_277#2 vdd net_295 ProyectoIntegrador__xor2
Xc_w262 0 net_473#4 net_515#4 vdd net_264#7 ProyectoIntegrador__xor2
Xc_w263 0 a29#0 vdd net_473 ProyectoIntegrador__id
Xc_w264 0 b29#0 vdd net_515 ProyectoIntegrador__id
Xc_w265 0 net_134#7 net_305#2 vdd net_277 ProyectoIntegrador__or2
Xc_w266 0 net_29#4 net_56#4 vdd net_134#2 ProyectoIntegrador__and2
Xc_w267 0 net_224#4 net_325 vdd net_305 ProyectoIntegrador__and2
Xc_w268 0 net_313#2 net_261#2 vdd net_282 ProyectoIntegrador__xor2
Xc_w269 0 net_330 net_310 vdd net_313#6 ProyectoIntegrador__xor2
Xc_w270 0 a30#0 vdd net_330#4 ProyectoIntegrador__id
Xc_w271 0 b30#0 vdd net_310#4 ProyectoIntegrador__id
Xc_w272 0 net_161#4 net_228#2 vdd net_261 ProyectoIntegrador__or2
Xc_w273 0 net_279#2 net_389 vdd net_161 ProyectoIntegrador__or2
Xc_w274 0 net_473#2 net_515#2 vdd net_279#5 ProyectoIntegrador__and2
Xc_w275 0 net_264#2 net_134#5 vdd net_389#2 ProyectoIntegrador__and2
Xc_w276 0 net_147#4 net_325#4 vdd net_228 ProyectoIntegrador__and2
Xc_w277 0 net_264 net_224 vdd net_147 ProyectoIntegrador__and2
Xc_w278 0 net_333#6 net_257#2 vdd net_301 ProyectoIntegrador__xor2
Xc_w279 0 net_284#4 net_317#4 vdd net_333 ProyectoIntegrador__xor2
Xc_w280 0 a31#0 vdd net_284 ProyectoIntegrador__id
Xc_w281 0 b31#0 vdd net_317 ProyectoIntegrador__id
Xc_w282 0 net_340#2 net_259#2 vdd net_257 ProyectoIntegrador__or2
Xc_w283 0 net_330#2 net_310#2 vdd net_340#4 ProyectoIntegrador__and2
Xc_w284 0 net_313#4 net_261#4 vdd net_259 ProyectoIntegrador__and2
Xc_w285 0 net_217 net_194 vdd net_39#2 ProyectoIntegrador__or2
Xc_w286 0 net_159 net_145 vdd net_217#2 ProyectoIntegrador__or2
Xc_w287 0 net_157 net_215 vdd net_159#2 ProyectoIntegrador__or2
Xc_w288 0 net_117 net_119#2 vdd net_157#2 ProyectoIntegrador__or2
Xc_w289 0 net_387 net_303 vdd net_117#2 ProyectoIntegrador__or2
Xc_w290 0 net_284#2 net_317#2 vdd net_387#2 ProyectoIntegrador__and2
Xc_w291 0 net_333#4 net_340 vdd net_303#2 ProyectoIntegrador__and2
Xc_w292 0 net_382#2 net_161#2 vdd net_119 ProyectoIntegrador__and2
Xc_w293 0 net_333#2 net_313 vdd net_382#4 ProyectoIntegrador__and2
Xc_w294 0 net_178#4 net_191 vdd net_215#2 ProyectoIntegrador__and2
Xc_w295 0 net_382 net_147#2 vdd net_178 ProyectoIntegrador__and2
Xc_w296 0 net_248 net_232#2 vdd net_145#2 ProyectoIntegrador__and2
Xc_w297 0 net_178#2 net_109 vdd net_248#4 ProyectoIntegrador__and2
Xc_w298 0 net_132#2 net_372#2 vdd net_194#2 ProyectoIntegrador__and2
Xc_w299 0 net_248#2 net_112#4 vdd net_132 ProyectoIntegrador__and2
** Extracted Parasitic Capacitors ***
C0 net_39 0 0.93fF
C1 cout#0 0 0.743fF
C2 net_795#2 0 0.831fF
C3 sum0#0 0 0.897fF
C4 net_800#2 0 0.831fF
C5 sum1#0 0 0.897fF
C6 net_913 0 1.92fF
C7 sum2#0 0 0.897fF
C8 net_876#2 0 1.425fF
C9 sum3#0 0 0.897fF
C10 net_580#2 0 1.799fF
C11 sum4#0 0 2.526fF
C12 net_871 0 1.326fF
C13 sum5#0 0 0.897fF
C14 net_867#2 0 1.326fF
C15 sum6#0 0 0.897fF
C16 net_765#2 0 1.623fF
C17 sum7#0 0 1.238fF
C18 net_852#2 0 1.227fF
C19 sum8#0 0 0.897fF
C20 net_726 0 1.326fF
C21 sum9#0 0 1.535fF
C22 net_611 0 1.623fF
C23 sum10#0 0 1.139fF
C24 net_662 0 2.118fF
C25 sum11#0 0 1.436fF
C26 net_613 0 1.403fF
C27 sum12#0 0 2.426fF
C28 net_583#2 0 1.326fF
C29 sum13#0 0 1.832fF
C30 net_568#2 0 1.898fF
C31 sum14#0 0 2.327fF
C32 net_482#2 0 1.722fF
C33 sum15#0 0 1.733fF
C34 net_121#2 0 2.393fF
C35 sum16#0 0 0.743fF
C36 net_345 0 1.623fF
C37 sum17#0 0 2.426fF
C38 net_471 0 1.722fF
C39 sum18#0 0 1.436fF
C40 net_459 0 1.623fF
C41 sum19#0 0 1.337fF
C42 net_5 0 0.831fF
C43 sum20#0 0 0.842fF
C44 net_23 0 0.93fF
C45 sum21#0 0 0.941fF
C46 net_64 0 1.128fF
C47 sum22#0 0 0.743fF
C48 net_209 0 1.623fF
C49 sum23#0 0 1.238fF
C50 net_243 0 0.908fF
C51 sum24#0 0 0.842fF
C52 net_168#2 0 1.227fF
C53 sum25#0 0 0.743fF
C54 net_433 0 1.425fF
C55 sum26#0 0 0.941fF
C56 net_469 0 1.722fF
C57 sum27#0 0 1.436fF
C58 net_150 0 2.195fF
C59 sum28#0 0 0.743fF
C60 net_295#2 0 1.128fF
C61 sum29#0 0 1.832fF
C62 net_282#2 0 1.128fF
C63 sum30#0 0 1.04fF
C64 net_301#2 0 1.227fF