*** SPICE deck for cell rippleCarry32{lay} from library ProyectoIntegrador
*** Created on jue dic 11, 2014 10:29:52
*** Last revised on jue dic 11, 2014 10:31:51
*** Written on jue dic 11, 2014 10:33:14 by Electric VLSI Design System, 
*** version 9.05
*** Layout tech: mocmos, foundry MOSIS
*** UC SPICE *** , MIN_RESIST 0.5, MIN_CAPAC 0.5FF
***    P-Active:	areacap=1.167FF/um^2,	edgecap=0.203FF/um,	res=7.5ohms/sq
***    N-Active:	areacap=0.982FF/um^2,	edgecap=0.244FF/um,	res=6.7ohms/sq
***    
*** Polysilicon-1:	areacap=0.1467FF/um^2,	edgecap=0.0608FF/um,	res=7.8ohms/sq
***    Transistor-Poly:	areacap=0.09FF/um^2,	edgecap=0.0FF/um,	res=2.5ohms/sq
***    Poly-Cut:	areacap=0.0FF/um^2,	edgecap=0.0FF/um,	res=10.5ohms/sq
***    Active-Cut:	areacap=0.0FF/um^2,	edgecap=0.0FF/um,	res=12.2ohms/sq
***    Metal-1:	areacap=0.1209FF/um^2,	edgecap=0.1104FF/um,	res=0.08ohms/sq
***    Via1:	areacap=0.0FF/um^2,	edgecap=0.0FF/um,	res=5.69ohms/sq
***    Metal-2:	areacap=0.0843FF/um^2,	edgecap=0.0974FF/um,	res=0.08ohms/sq
***    Via2:	areacap=0.0FF/um^2,	edgecap=0.0FF/um,	res=11.39ohms/sq
***    Metal-3:	areacap=0.0843FF/um^2,	edgecap=0.0974FF/um,	res=0.08ohms/sq
***    Via3:	areacap=0.0FF/um^2,	edgecap=0.0FF/um,	res=16.73ohms/sq
***    Metal-4:	areacap=0.0843FF/um^2,	edgecap=0.0974FF/um,	res=0.08ohms/sq
***    Via4:	areacap=0.0FF/um^2,	edgecap=0.0FF/um,	res=21.44ohms/sq
***    Metal-5:	areacap=0.0843FF/um^2,	edgecap=0.0974FF/um,	res=0.07ohms/sq
***    Via5:	areacap=0.0FF/um^2,	edgecap=0.0FF/um,	res=24.08ohms/sq
***    Metal-6:	areacap=0.0423FF/um^2,	edgecap=0.1273FF/um,	res=0.03ohms/sq
***    Hi-Res:	areacap=0.0FF/um^2,	edgecap=0.0FF/um,	res=1.0ohms/sq
* Model cards are described in this file:
.include /home/lean/tfinal/trabajo/models/tsmc180nm.model

*** SUBCIRCUIT ProyectoIntegrador__id FROM CELL id{lay}
.SUBCKT ProyectoIntegrador__id vss a vdd y
Mnmos_0 net_10 a#1 0 0 N L=0.18U W=0.36U AS=0.486P AD=0.243P PS=5.22U 
+PD=1.98U
Mnmos_1 y#0 net_10#6 0 0 N L=0.18U W=0.36U AS=0.486P AD=0.243P PS=5.22U 
+PD=1.98U
Mpmos_0 net_10#2 a#5 vdd vdd P L=0.18U W=0.72U AS=0.648P AD=0.243P PS=5.94U 
+PD=1.98U
Mpmos_1 y#2 net_10#10 vdd vdd P L=0.18U W=0.72U AS=0.648P AD=0.243P PS=5.94U 
+PD=1.98U
** Extracted Parasitic Capacitors ***
C0 net_10 0 0.576fF
C1 net_10#2 0 0.553fF
C2 y#2 0 0.644fF
C3 net_10#4 0 1.326fF
C4 y 0 1.129fF
C5 a#3 0 0.583fF
C6 net_10#8 0 0.583fF
** Extracted Parasitic Resistors ***
R0 a#1 a#2 15.6
R1 a#3 a#2 181.35
R2 a#4 a#3 157.95
R3 a a#3 1.95
R4 a#5 a#4 15.6
R5 net_10#6 net_10#7 15.6
R6 net_10#8 net_10#7 181.35
R7 net_10#9 net_10#8 157.95
R8 net_10#4 net_10#8 1.95
R9 net_10#10 net_10#9 15.6
R10 y#2 y 1.507
R11 net_10#2 net_10#4 1.293
R12 net_10#4 net_10 1.347
R13 y#0 y 1.133
.ENDS ProyectoIntegrador__id

*** SUBCIRCUIT ProyectoIntegrador__xor2_1x FROM CELL xor2_1x{lay}
.SUBCKT ProyectoIntegrador__xor2_1x vss a b vdd y
Mnmos_0 net_79 a#9 0 0 N L=0.18U W=0.36U AS=0.356P AD=0.071P PS=3.78U 
+PD=0.765U
Mnmos_1 net_76 net_160#11 y#0 0 N L=0.18U W=0.36U AS=0.146P AD=0.071P 
+PS=1.08U PD=0.765U
Mnmos_2 0 net_270#10 net_76 0 N L=0.18U W=0.36U AS=0.071P AD=0.356P PS=0.765U 
+PD=3.78U
Mnmos_3 y#0 b#5 net_79 0 N L=0.18U W=0.36U AS=0.071P AD=0.146P PS=0.765U 
+PD=1.08U
Mnmos_4 net_160#12 b#0 0 0 N L=0.18U W=0.36U AS=0.356P AD=0.227P PS=3.78U 
+PD=1.98U
Mnmos_5 0 a#5 net_270#2 0 N L=0.18U W=0.36U AS=0.227P AD=0.356P PS=1.98U 
+PD=3.78U
Mpmos_0 net_68 net_270#12 vdd vdd P L=0.18U W=0.72U AS=0.454P AD=0.136P 
+PS=4.14U PD=1.125U
Mpmos_1 y b#11 net_68 vdd P L=0.18U W=0.72U AS=0.136P AD=0.146P PS=1.125U 
+PD=1.08U
Mpmos_2 net_70 net_160#5 y vdd P L=0.18U W=0.72U AS=0.146P AD=0.136P PS=1.08U 
+PD=1.125U
Mpmos_4 vdd a#12 net_70 vdd P L=0.18U W=0.72U AS=0.136P AD=0.454P PS=1.125U 
+PD=4.14U
Mpmos_5 vdd a#1 net_270 vdd P L=0.18U W=0.72U AS=0.227P AD=0.454P PS=1.98U 
+PD=4.14U
Mpmos_6 net_160 b#13 vdd vdd P L=0.18U W=0.72U AS=0.454P AD=0.227P PS=4.14U 
+PD=1.98U
** Extracted Parasitic Capacitors ***
C0 y#0 0 1.034fF
C1 y 0 0.943fF
C2 a#0 0 0.556fF
C3 net_160#12 0 0.529fF
C4 net_160 0 0.62fF
C5 a 0 1.122fF
C6 net_270 0 1.347fF
C7 net_270#1 0 1.108fF
C8 net_160#2 0 1.211fF
C9 net_270#4 0 0.578fF
C10 b#2 0 0.583fF
** Extracted Parasitic Resistors ***
R0 y y#0 2.413
R1 a#0 a 0.76
R2 a#1 a#2 15.6
R3 a#2 a#2##0 111.15
R4 a#2##0 a 111.15
R5 a#4 a#5 15.6
R6 a a#4 117
R7 b#0 b#1 31.2
R8 b#1 b#2 183.3
R9 b#2 b#4 156
R10 b b#2 1.95
R11 net_270 net_270#1 1.107
R12 net_270#1 net_270#2 0.653
R13 net_160#2 net_160 1.44
R14 net_160#2 net_160#4 0.6
R15 net_270#3 net_270#4 68.25
R16 net_270#7 net_270 1.95
R17 net_270#1 net_270#4 1.08
R18 a#0 a#0##0 101.4
R19 a#0##0 a#8 101.4
R20 b#5 b#6 39
R21 b#6 b#7 7.8
R22 b#7 b#8 142.35
R23 b#9 b#10 7.8
R24 b#10 b#11 39
R25 net_160#5 net_160#6 58.5
R26 net_160#6 net_160#7 7.8
R27 net_160#7 net_160#8 130.65
R28 net_160#9 net_160#10 7.8
R29 net_160#10 net_160#11 58.5
R30 b b#12 0.547
R31 b#8 b#9 118.95
R32 b#12 b#8 1.95
R33 net_160#8 net_160#9 91.65
R34 net_160#4 net_160#8 1.95
R35 net_160#12 net_160#2 1.16
R36 net_270#10 net_270#11 19.5
R37 net_270#11 net_270#3 31.2
R38 a#9 a#10 19.5
R39 a#10 a#11 15.6
R40 a#11 a 101.4
R41 net_270#12 net_270#13 19.5
R42 net_270#13 net_270#14 15.6
R43 net_270#14 net_270 76.05
R44 a#12 a#13 19.5
R45 a#13 a#8 15.6
R46 b#13 b#4 31.2
.ENDS ProyectoIntegrador__xor2_1x

*** SUBCIRCUIT ProyectoIntegrador__or2_1x FROM CELL or2_1x{lay}
.SUBCKT ProyectoIntegrador__or2_1x vss a b vdd y
Mnmos_0 net_56#2 a#1 0 0 N L=0.18U W=0.36U AS=0.421P AD=0.162P PS=4.5U 
+PD=1.38U
Mnmos_1 0 b#3 net_56#2 0 N L=0.18U W=0.36U AS=0.162P AD=0.421P PS=1.38U 
+PD=4.5U
Mnmos_2 y#0 net_56#9 0 0 N L=0.18U W=0.36U AS=0.421P AD=0.227P PS=4.5U 
+PD=1.98U
Mpmos_0 net_55 a#3 vdd vdd P L=0.18U W=0.72U AS=0.68P AD=0.136P PS=6.66U 
+PD=1.125U
Mpmos_1 net_56 b#1 net_55 vdd P L=0.18U W=0.72U AS=0.136P AD=0.162P PS=1.125U 
+PD=1.38U
Mpmos_2 y#2 net_56#14 vdd vdd P L=0.18U W=0.72U AS=0.68P AD=0.227P PS=6.66U 
+PD=1.98U
** Extracted Parasitic Capacitors ***
C0 net_56 0 0.587fF
C1 y#2 0 0.627fF
C2 net_56#13 0 0.967fF
C3 y 0 1.112fF
C4 net_56#6 0 0.753fF
C5 net_56#11 0 0.583fF
** Extracted Parasitic Resistors ***
R0 a#1 a#2 15.6
R1 a#3 a#4 15.6
R2 a#4 a#5 64.35
R3 b#1 b#2 23.4
R4 b#3 b#4 19.5
R5 b#2 b#5 7.8
R6 b#5 b#6 70.2
R7 b#7 b#4 15.6
R8 a#5 a#5##0 137.475
R9 a#5##0 a#2 137.475
R10 a#5 a 1.95
R11 b#6 b#6##0 113.1
R12 b#6##0 b#7 113.1
R13 b#6 b 1.95
R14 net_56#2 net_56#6 0.693
R15 net_56#9 net_56#10 15.6
R16 net_56#11 net_56#10 181.35
R17 net_56#12 net_56#11 157.95
R18 net_56#13 net_56#11 1.95
R19 y#2 y 1.467
R20 y y#0 1.133
R21 net_56#14 net_56#12 15.6
R22 net_56#6 net_56#13 0.64
R23 net_56#13 net_56 1.24
.ENDS ProyectoIntegrador__or2_1x

*** SUBCIRCUIT ProyectoIntegrador__and2_1x FROM CELL and2_1x{lay}
.SUBCKT ProyectoIntegrador__and2_1x vss a b vdd y
Mnmos_0 net_121 b#7 net_149 0 N L=0.18U W=0.36U AS=0.071P AD=0.184P PS=0.765U 
+PD=1.38U
Mnmos_1 net_149 a#5 0 0 N L=0.18U W=0.36U AS=0.551P AD=0.071P PS=5.94U 
+PD=0.765U
Mnmos_2 y#0 net_121#13 0 0 N L=0.18U W=0.36U AS=0.551P AD=0.243P PS=5.94U 
+PD=1.98U
Mpmos_0 vdd b#1 net_121#2 vdd P L=0.18U W=0.72U AS=0.184P AD=0.562P PS=1.38U 
+PD=5.22U
Mpmos_1 net_121#2 a#1 vdd vdd P L=0.18U W=0.72U AS=0.562P AD=0.184P PS=5.22U 
+PD=1.38U
Mpmos_2 y#2 net_121#7 vdd vdd P L=0.18U W=0.72U AS=0.562P AD=0.243P PS=5.22U 
+PD=1.98U
** Extracted Parasitic Capacitors ***
C0 net_121 0 0.707fF
C1 y#2 0 0.644fF
C2 y 0 1.129fF
C3 net_121#3 0 1.93fF
C4 b#4 0 0.516fF
** Extracted Parasitic Resistors ***
R0 a#1 a#2 15.6
R1 a#2 a#2##0 125.775
R2 a#2##0 a#3 125.775
R3 b#1 b#2 19.5
R4 b#2 b#3 15.6
R5 b#3 b#4 140.4
R6 b#5 b#6 7.8
R7 b#6 b#7 19.5
R8 b#4 b#5 159.9
R9 b b#4 1.95
R10 a#3 a#4 87.75
R11 a#3 a 1.95
R12 a#4 a#5 15.6
R13 net_121#2 net_121#3 1.04
R14 y#2 y 1.507
R15 y y#0 1.133
R16 net_121#7 net_121#8 15.6
R17 net_121#3 net_121 1.547
R18 net_121#11 net_121#11##0 106.275
R19 net_121#11##0 net_121#3 106.275
R20 net_121#3 net_121#8 126.75
R21 net_121#11 net_121#13 15.6
.ENDS ProyectoIntegrador__and2_1x

*** TOP LEVEL CELL: rippleCarry32{lay}
Xc_cout 0 net_662 vdd cout#0 ProyectoIntegrador__id
Xc_sum0 0 net_51 vdd sum0#0 ProyectoIntegrador__id
Xc_sum1 0 net_17 vdd sum1#0 ProyectoIntegrador__id
Xc_sum2 0 net_41 vdd sum2#0 ProyectoIntegrador__id
Xc_sum3 0 net_36 vdd sum3#0 ProyectoIntegrador__id
Xc_sum4 0 net_31 vdd sum4#0 ProyectoIntegrador__id
Xc_sum5 0 net_157 vdd sum5#0 ProyectoIntegrador__id
Xc_sum6 0 net_144#2 vdd sum6#0 ProyectoIntegrador__id
Xc_sum7 0 net_149#2 vdd sum7#0 ProyectoIntegrador__id
Xc_sum8 0 net_109#2 vdd sum8#0 ProyectoIntegrador__id
Xc_sum9 0 net_191#2 vdd sum9#0 ProyectoIntegrador__id
Xc_sum10 0 net_206#2 vdd sum10#0 ProyectoIntegrador__id
Xc_sum11 0 net_234 vdd sum11#0 ProyectoIntegrador__id
Xc_sum12 0 net_250 vdd sum12#0 ProyectoIntegrador__id
Xc_sum13 0 net_245 vdd sum13#0 ProyectoIntegrador__id
Xc_sum14 0 net_305 vdd sum14#0 ProyectoIntegrador__id
Xc_sum15 0 net_314 vdd sum15#0 ProyectoIntegrador__id
Xc_sum16 0 net_338#2 vdd sum16#0 ProyectoIntegrador__id
Xc_sum17 0 net_373#2 vdd sum17#0 ProyectoIntegrador__id
Xc_sum18 0 net_362#2 vdd sum18#0 ProyectoIntegrador__id
Xc_sum19 0 net_413#2 vdd sum19#0 ProyectoIntegrador__id
Xc_sum20 0 net_436#2 vdd sum20#0 ProyectoIntegrador__id
Xc_sum21 0 net_428#2 vdd sum21#0 ProyectoIntegrador__id
Xc_sum22 0 net_487 vdd sum22#0 ProyectoIntegrador__id
Xc_sum23 0 net_482 vdd sum23#0 ProyectoIntegrador__id
Xc_sum24 0 net_477 vdd sum24#0 ProyectoIntegrador__id
Xc_sum25 0 net_529 vdd sum25#0 ProyectoIntegrador__id
Xc_sum26 0 net_543 vdd sum26#0 ProyectoIntegrador__id
Xc_sum27 0 net_568#2 vdd sum27#0 ProyectoIntegrador__id
Xc_sum28 0 net_600#2 vdd sum28#0 ProyectoIntegrador__id
Xc_sum29 0 net_605#2 vdd sum29#0 ProyectoIntegrador__id
Xc_sum30 0 net_610#2 vdd sum30#0 ProyectoIntegrador__id
Xc_sum31 0 net_182#2 vdd sum31#0 ProyectoIntegrador__id
Xc_w1 0 net_23 net_78 vdd net_51#2 ProyectoIntegrador__xor2_1x
Xc_w2 0 cin#0 vdd net_23#4 ProyectoIntegrador__id
Xc_w3 0 net_19 net_99 vdd net_78#4 ProyectoIntegrador__xor2_1x
Xc_w4 0 a0#0 vdd net_19#4 ProyectoIntegrador__id
Xc_w5 0 b0#0 vdd net_99#4 ProyectoIntegrador__id
Xc_w6 0 net_46#2 net_73 vdd net_17#2 ProyectoIntegrador__xor2_1x
Xc_w7 0 net_49#2 net_76#2 vdd net_46 ProyectoIntegrador__or2_1x
Xc_w8 0 net_23#2 net_78#2 vdd net_49 ProyectoIntegrador__and2_1x
Xc_w9 0 net_19#2 net_99#2 vdd net_76 ProyectoIntegrador__and2_1x
Xc_w10 0 net_43 net_94 vdd net_73#4 ProyectoIntegrador__xor2_1x
Xc_w11 0 a1#0 vdd net_43#4 ProyectoIntegrador__id
Xc_w12 0 b1#0 vdd net_94#4 ProyectoIntegrador__id
Xc_w13 0 net_12#2 net_68 vdd net_41#2 ProyectoIntegrador__xor2_1x
Xc_w14 0 net_15#2 net_71#2 vdd net_12 ProyectoIntegrador__or2_1x
Xc_w15 0 net_46#4 net_73#2 vdd net_15 ProyectoIntegrador__and2_1x
Xc_w16 0 net_43#2 net_94#2 vdd net_71 ProyectoIntegrador__and2_1x
Xc_w17 0 net_38 net_89 vdd net_68#4 ProyectoIntegrador__xor2_1x
Xc_w18 0 a2#0 vdd net_38#4 ProyectoIntegrador__id
Xc_w19 0 b2#0 vdd net_89#4 ProyectoIntegrador__id
Xc_w20 0 net_7#2 net_63 vdd net_36#2 ProyectoIntegrador__xor2_1x
Xc_w21 0 net_10#2 net_66#2 vdd net_7 ProyectoIntegrador__or2_1x
Xc_w22 0 net_12#4 net_68#2 vdd net_10 ProyectoIntegrador__and2_1x
Xc_w23 0 net_38#2 net_89#2 vdd net_66 ProyectoIntegrador__and2_1x
Xc_w24 0 net_33 net_60 vdd net_63#4 ProyectoIntegrador__xor2_1x
Xc_w25 0 a3#0 vdd net_33#4 ProyectoIntegrador__id
Xc_w26 0 b3#0 vdd net_60#4 ProyectoIntegrador__id
Xc_w27 0 net_2#2 net_55 vdd net_31#2 ProyectoIntegrador__xor2_1x
Xc_w28 0 net_5#2 net_85#2 vdd net_2 ProyectoIntegrador__or2_1x
Xc_w29 0 net_7#4 net_63#2 vdd net_5 ProyectoIntegrador__and2_1x
Xc_w30 0 net_33#2 net_60#2 vdd net_85 ProyectoIntegrador__and2_1x
Xc_w31 0 net_28 net_82 vdd net_55#4 ProyectoIntegrador__xor2_1x
Xc_w32 0 a4#0 vdd net_28#4 ProyectoIntegrador__id
Xc_w33 0 b4#0 vdd net_82#4 ProyectoIntegrador__id
Xc_w34 0 net_138#4 net_121#4 vdd net_157#2 ProyectoIntegrador__xor2_1x
Xc_w35 0 net_0#2 net_53#2 vdd net_138 ProyectoIntegrador__or2_1x
Xc_w36 0 net_2#4 net_55#2 vdd net_0 ProyectoIntegrador__and2_1x
Xc_w37 0 net_28#2 net_82#2 vdd net_53 ProyectoIntegrador__and2_1x
Xc_w38 0 net_220#4 net_141#4 vdd net_121 ProyectoIntegrador__xor2_1x
Xc_w39 0 a5#0 vdd net_220 ProyectoIntegrador__id
Xc_w40 0 b5#0 vdd net_141 ProyectoIntegrador__id
Xc_w41 0 net_126#2 net_159#4 vdd net_144 ProyectoIntegrador__xor2_1x
Xc_w42 0 net_218 net_124 vdd net_126#4 ProyectoIntegrador__or2_1x
Xc_w43 0 net_138#2 net_121#2 vdd net_218#2 ProyectoIntegrador__and2_1x
Xc_w44 0 net_220#2 net_141#2 vdd net_124#2 ProyectoIntegrador__and2_1x
Xc_w45 0 net_146#4 net_201#4 vdd net_159 ProyectoIntegrador__xor2_1x
Xc_w46 0 a6#0 vdd net_146 ProyectoIntegrador__id
Xc_w47 0 b6#0 vdd net_201 ProyectoIntegrador__id
Xc_w48 0 net_131#2 net_164#4 vdd net_149 ProyectoIntegrador__xor2_1x
Xc_w49 0 net_129 net_162 vdd net_131#4 ProyectoIntegrador__or2_1x
Xc_w50 0 net_126 net_159#2 vdd net_129#2 ProyectoIntegrador__and2_1x
Xc_w51 0 net_146#2 net_201#2 vdd net_162#2 ProyectoIntegrador__and2_1x
Xc_w52 0 net_134#4 net_185#4 vdd net_164 ProyectoIntegrador__xor2_1x
Xc_w53 0 a7#0 vdd net_134 ProyectoIntegrador__id
Xc_w54 0 b7#0 vdd net_185 ProyectoIntegrador__id
Xc_w55 0 net_169#2 net_153#4 vdd net_109 ProyectoIntegrador__xor2_1x
Xc_w56 0 net_151 net_167 vdd net_169#4 ProyectoIntegrador__or2_1x
Xc_w57 0 net_131 net_164#2 vdd net_151#2 ProyectoIntegrador__and2_1x
Xc_w58 0 net_134#2 net_185#2 vdd net_167#2 ProyectoIntegrador__and2_1x
Xc_w59 0 net_172#4 net_188#4 vdd net_153 ProyectoIntegrador__xor2_1x
Xc_w60 0 a8#0 vdd net_172 ProyectoIntegrador__id
Xc_w61 0 b8#0 vdd net_188 ProyectoIntegrador__id
Xc_w62 0 net_113#2 net_193#4 vdd net_191 ProyectoIntegrador__xor2_1x
Xc_w63 0 net_111 net_177 vdd net_113#4 ProyectoIntegrador__or2_1x
Xc_w64 0 net_169 net_153#2 vdd net_111#2 ProyectoIntegrador__and2_1x
Xc_w65 0 net_172#2 net_188#2 vdd net_177#2 ProyectoIntegrador__and2_1x
Xc_w66 0 net_179#4 net_196#4 vdd net_193 ProyectoIntegrador__xor2_1x
Xc_w67 0 a9#0 vdd net_179 ProyectoIntegrador__id
Xc_w68 0 b9#0 vdd net_196 ProyectoIntegrador__id
Xc_w69 0 net_118#2 net_208#4 vdd net_206 ProyectoIntegrador__xor2_1x
Xc_w70 0 net_116 net_212 vdd net_118#4 ProyectoIntegrador__or2_1x
Xc_w71 0 net_113 net_193#2 vdd net_116#2 ProyectoIntegrador__and2_1x
Xc_w72 0 net_179#2 net_196#2 vdd net_212#2 ProyectoIntegrador__and2_1x
Xc_w73 0 net_278#2 net_236#2 vdd net_208 ProyectoIntegrador__xor2_1x
Xc_w74 0 a10#0 vdd net_278#4 ProyectoIntegrador__id
Xc_w75 0 b10#0 vdd net_236#4 ProyectoIntegrador__id
Xc_w76 0 net_255#2 net_275 vdd net_234#2 ProyectoIntegrador__xor2_1x
Xc_w77 0 net_258#2 net_335#2 vdd net_255 ProyectoIntegrador__or2_1x
Xc_w78 0 net_118 net_208#2 vdd net_258 ProyectoIntegrador__and2_1x
Xc_w79 0 net_278 net_236 vdd net_335 ProyectoIntegrador__and2_1x
Xc_w80 0 net_252 net_307 vdd net_275#4 ProyectoIntegrador__xor2_1x
Xc_w81 0 a11#0 vdd net_252#4 ProyectoIntegrador__id
Xc_w82 0 b11#0 vdd net_307#4 ProyectoIntegrador__id
Xc_w83 0 net_229#2 net_270 vdd net_250#2 ProyectoIntegrador__xor2_1x
Xc_w84 0 net_232#2 net_273#2 vdd net_229 ProyectoIntegrador__or2_1x
Xc_w85 0 net_255#4 net_275#2 vdd net_232 ProyectoIntegrador__and2_1x
Xc_w86 0 net_252#2 net_307#2 vdd net_273 ProyectoIntegrador__and2_1x
Xc_w87 0 net_247 net_297 vdd net_270#4 ProyectoIntegrador__xor2_1x
Xc_w88 0 a12#0 vdd net_247#4 ProyectoIntegrador__id
Xc_w89 0 b12#0 vdd net_297#4 ProyectoIntegrador__id
Xc_w90 0 net_265#2 net_224 vdd net_245#2 ProyectoIntegrador__xor2_1x
Xc_w91 0 net_227#2 net_268#2 vdd net_265 ProyectoIntegrador__or2_1x
Xc_w92 0 net_229#4 net_270#2 vdd net_227 ProyectoIntegrador__and2_1x
Xc_w93 0 net_247#2 net_297#2 vdd net_268 ProyectoIntegrador__and2_1x
Xc_w94 0 net_242 net_262 vdd net_224#4 ProyectoIntegrador__xor2_1x
Xc_w95 0 a13#0 vdd net_242#4 ProyectoIntegrador__id
Xc_w96 0 b13#0 vdd net_262#4 ProyectoIntegrador__id
Xc_w97 0 net_285#2 net_292 vdd net_305#2 ProyectoIntegrador__xor2_1x
Xc_w98 0 net_288#2 net_295#2 vdd net_285 ProyectoIntegrador__or2_1x
Xc_w99 0 net_265#4 net_224#2 vdd net_288 ProyectoIntegrador__and2_1x
Xc_w100 0 net_242#2 net_262#2 vdd net_295 ProyectoIntegrador__and2_1x
Xc_w101 0 net_282 net_302 vdd net_292#4 ProyectoIntegrador__xor2_1x
Xc_w102 0 a14#0 vdd net_282#4 ProyectoIntegrador__id
Xc_w103 0 b14#0 vdd net_302#4 ProyectoIntegrador__id
Xc_w104 0 net_328#2 net_318 vdd net_314#2 ProyectoIntegrador__xor2_1x
Xc_w105 0 net_321#2 net_331#2 vdd net_328 ProyectoIntegrador__or2_1x
Xc_w106 0 net_285#4 net_292#2 vdd net_321 ProyectoIntegrador__and2_1x
Xc_w107 0 net_282#2 net_302#2 vdd net_331 ProyectoIntegrador__and2_1x
Xc_w108 0 net_311 net_325 vdd net_318#4 ProyectoIntegrador__xor2_1x
Xc_w109 0 a15#0 vdd net_311#4 ProyectoIntegrador__id
Xc_w110 0 b15#0 vdd net_325#4 ProyectoIntegrador__id
Xc_w111 0 net_443#2 net_354#4 vdd net_338 ProyectoIntegrador__xor2_1x
Xc_w112 0 net_368#2 net_352#2 vdd net_443#4 ProyectoIntegrador__or2_1x
Xc_w113 0 net_328#4 net_318#2 vdd net_368 ProyectoIntegrador__and2_1x
Xc_w114 0 net_311#2 net_325#2 vdd net_352 ProyectoIntegrador__and2_1x
Xc_w115 0 net_446#4 net_370#4 vdd net_354 ProyectoIntegrador__xor2_1x
Xc_w116 0 a16#0 vdd net_446 ProyectoIntegrador__id
Xc_w117 0 b16#0 vdd net_370 ProyectoIntegrador__id
Xc_w118 0 net_342#2 net_375#4 vdd net_373 ProyectoIntegrador__xor2_1x
Xc_w119 0 net_340 net_357 vdd net_342#4 ProyectoIntegrador__or2_1x
Xc_w120 0 net_443 net_354#2 vdd net_340#2 ProyectoIntegrador__and2_1x
Xc_w121 0 net_446#2 net_370#2 vdd net_357#2 ProyectoIntegrador__and2_1x
Xc_w122 0 net_359#4 net_410#4 vdd net_375 ProyectoIntegrador__xor2_1x
Xc_w123 0 a17#0 vdd net_359 ProyectoIntegrador__id
Xc_w124 0 b17#0 vdd net_410 ProyectoIntegrador__id
Xc_w125 0 net_380#2 net_347#4 vdd net_362 ProyectoIntegrador__xor2_1x
Xc_w126 0 net_345 net_378 vdd net_380#4 ProyectoIntegrador__or2_1x
Xc_w127 0 net_342 net_375#2 vdd net_345#2 ProyectoIntegrador__and2_1x
Xc_w128 0 net_359#2 net_410#2 vdd net_378#2 ProyectoIntegrador__and2_1x
Xc_w129 0 net_364#4 net_383#4 vdd net_347 ProyectoIntegrador__xor2_1x
Xc_w130 0 a18#0 vdd net_364 ProyectoIntegrador__id
Xc_w131 0 b18#0 vdd net_383 ProyectoIntegrador__id
Xc_w132 0 net_390#2 net_415#4 vdd net_413 ProyectoIntegrador__xor2_1x
Xc_w133 0 net_388 net_403 vdd net_390#4 ProyectoIntegrador__or2_1x
Xc_w134 0 net_380 net_347#2 vdd net_388#2 ProyectoIntegrador__and2_1x
Xc_w135 0 net_364#2 net_383#2 vdd net_403#2 ProyectoIntegrador__and2_1x
Xc_w136 0 net_405#4 net_433#4 vdd net_415 ProyectoIntegrador__xor2_1x
Xc_w137 0 a19#0 vdd net_405 ProyectoIntegrador__id
Xc_w138 0 b19#0 vdd net_433 ProyectoIntegrador__id
Xc_w139 0 net_395#2 net_422#4 vdd net_436 ProyectoIntegrador__xor2_1x
Xc_w140 0 net_393 net_420 vdd net_395#4 ProyectoIntegrador__or2_1x
Xc_w141 0 net_390 net_415#2 vdd net_393#2 ProyectoIntegrador__and2_1x
Xc_w142 0 net_405#2 net_433#2 vdd net_420#2 ProyectoIntegrador__and2_1x
Xc_w143 0 net_398#4 net_425#4 vdd net_422 ProyectoIntegrador__xor2_1x
Xc_w144 0 a20#0 vdd net_398 ProyectoIntegrador__id
Xc_w145 0 b20#0 vdd net_425 ProyectoIntegrador__id
Xc_w146 0 net_492#2 net_468#2 vdd net_428 ProyectoIntegrador__xor2_1x
Xc_w147 0 net_441 net_438 vdd net_492#4 ProyectoIntegrador__or2_1x
Xc_w148 0 net_395 net_422#2 vdd net_441#2 ProyectoIntegrador__and2_1x
Xc_w149 0 net_398#2 net_425#2 vdd net_438#2 ProyectoIntegrador__and2_1x
Xc_w150 0 net_561 net_489 vdd net_468#4 ProyectoIntegrador__xor2_1x
Xc_w151 0 a21#0 vdd net_561#4 ProyectoIntegrador__id
Xc_w152 0 b21#0 vdd net_489#4 ProyectoIntegrador__id
Xc_w153 0 net_463#2 net_536 vdd net_487#2 ProyectoIntegrador__xor2_1x
Xc_w154 0 net_558#2 net_466#2 vdd net_463 ProyectoIntegrador__or2_1x
Xc_w155 0 net_492 net_468 vdd net_558 ProyectoIntegrador__and2_1x
Xc_w156 0 net_561#2 net_489#2 vdd net_466 ProyectoIntegrador__and2_1x
Xc_w157 0 net_484 net_555 vdd net_536#4 ProyectoIntegrador__xor2_1x
Xc_w158 0 a22#0 vdd net_484#4 ProyectoIntegrador__id
Xc_w159 0 b22#0 vdd net_555#4 ProyectoIntegrador__id
Xc_w160 0 net_458#2 net_521 vdd net_482#2 ProyectoIntegrador__xor2_1x
Xc_w161 0 net_461#2 net_534#2 vdd net_458 ProyectoIntegrador__or2_1x
Xc_w162 0 net_463#4 net_536#2 vdd net_461 ProyectoIntegrador__and2_1x
Xc_w163 0 net_484#2 net_555#2 vdd net_534 ProyectoIntegrador__and2_1x
Xc_w164 0 net_479 net_531 vdd net_521#4 ProyectoIntegrador__xor2_1x
Xc_w165 0 a23#0 vdd net_479#4 ProyectoIntegrador__id
Xc_w166 0 b23#0 vdd net_531#4 ProyectoIntegrador__id
Xc_w167 0 net_504#2 net_453 vdd net_477#2 ProyectoIntegrador__xor2_1x
Xc_w168 0 net_456#2 net_519#2 vdd net_504 ProyectoIntegrador__or2_1x
Xc_w169 0 net_458#4 net_521#2 vdd net_456 ProyectoIntegrador__and2_1x
Xc_w170 0 net_479#2 net_531#2 vdd net_519 ProyectoIntegrador__and2_1x
Xc_w171 0 net_509 net_474 vdd net_453#4 ProyectoIntegrador__xor2_1x
Xc_w172 0 a24#0 vdd net_509#4 ProyectoIntegrador__id
Xc_w173 0 b24#0 vdd net_474#4 ProyectoIntegrador__id
Xc_w174 0 net_499#2 net_514 vdd net_529#2 ProyectoIntegrador__xor2_1x
Xc_w175 0 net_502#2 net_517#2 vdd net_499 ProyectoIntegrador__or2_1x
Xc_w176 0 net_504#4 net_453#2 vdd net_502 ProyectoIntegrador__and2_1x
Xc_w177 0 net_509#2 net_474#2 vdd net_517 ProyectoIntegrador__and2_1x
Xc_w178 0 net_496 net_526 vdd net_514#4 ProyectoIntegrador__xor2_1x
Xc_w179 0 a25#0 vdd net_496#4 ProyectoIntegrador__id
Xc_w180 0 b25#0 vdd net_526#4 ProyectoIntegrador__id
Xc_w181 0 net_546#2 net_540 vdd net_543#2 ProyectoIntegrador__xor2_1x
Xc_w182 0 net_549#2 net_552#2 vdd net_546 ProyectoIntegrador__or2_1x
Xc_w183 0 net_499#4 net_514#2 vdd net_549 ProyectoIntegrador__and2_1x
Xc_w184 0 net_496#2 net_526#2 vdd net_552 ProyectoIntegrador__and2_1x
Xc_w185 0 net_565#2 net_589 vdd net_540#4 ProyectoIntegrador__xor2_1x
Xc_w186 0 a26#0 vdd net_565 ProyectoIntegrador__id
Xc_w187 0 b26#0 vdd net_589#2 ProyectoIntegrador__id
Xc_w188 0 net_594#2 net_623#4 vdd net_568 ProyectoIntegrador__xor2_1x
Xc_w189 0 net_592 net_621 vdd net_594#4 ProyectoIntegrador__or2_1x
Xc_w190 0 net_546#4 net_540#2 vdd net_592#2 ProyectoIntegrador__and2_1x
Xc_w191 0 net_565#4 net_589#4 vdd net_621#2 ProyectoIntegrador__and2_1x
Xc_w192 0 net_597#4 net_650#4 vdd net_623 ProyectoIntegrador__xor2_1x
Xc_w193 0 a27#0 vdd net_597 ProyectoIntegrador__id
Xc_w194 0 b27#0 vdd net_650 ProyectoIntegrador__id
Xc_w195 0 net_572#2 net_628#4 vdd net_600 ProyectoIntegrador__xor2_1x
Xc_w196 0 net_570 net_626 vdd net_572#4 ProyectoIntegrador__or2_1x
Xc_w197 0 net_594 net_623#2 vdd net_570#2 ProyectoIntegrador__and2_1x
Xc_w198 0 net_597#2 net_650#2 vdd net_626#2 ProyectoIntegrador__and2_1x
Xc_w199 0 net_602#4 net_653#4 vdd net_628 ProyectoIntegrador__xor2_1x
Xc_w200 0 a28#0 vdd net_602 ProyectoIntegrador__id
Xc_w201 0 b28#0 vdd net_653 ProyectoIntegrador__id
Xc_w202 0 net_577#2 net_633#4 vdd net_605 ProyectoIntegrador__xor2_1x
Xc_w203 0 net_575 net_631 vdd net_577#4 ProyectoIntegrador__or2_1x
Xc_w204 0 net_572 net_628#2 vdd net_575#2 ProyectoIntegrador__and2_1x
Xc_w205 0 net_602#2 net_653#2 vdd net_631#2 ProyectoIntegrador__and2_1x
Xc_w206 0 net_607#4 net_656#4 vdd net_633 ProyectoIntegrador__xor2_1x
Xc_w207 0 a29#0 vdd net_607 ProyectoIntegrador__id
Xc_w208 0 b29#0 vdd net_656 ProyectoIntegrador__id
Xc_w209 0 net_582#2 net_638#4 vdd net_610 ProyectoIntegrador__xor2_1x
Xc_w210 0 net_580 net_636 vdd net_582#4 ProyectoIntegrador__or2_1x
Xc_w211 0 net_577 net_633#2 vdd net_580#2 ProyectoIntegrador__and2_1x
Xc_w212 0 net_607#2 net_656#2 vdd net_636#2 ProyectoIntegrador__and2_1x
Xc_w213 0 net_612#4 net_659#4 vdd net_638 ProyectoIntegrador__xor2_1x
Xc_w214 0 a30#0 vdd net_612 ProyectoIntegrador__id
Xc_w215 0 b30#0 vdd net_659 ProyectoIntegrador__id
Xc_w216 0 net_643#2 net_615#4 vdd net_182#14 ProyectoIntegrador__xor2_1x
Xc_w217 0 net_585 net_641 vdd net_643#4 ProyectoIntegrador__or2_1x
Xc_w218 0 net_582 net_638#2 vdd net_585#2 ProyectoIntegrador__and2_1x
Xc_w219 0 net_612#2 net_659#2 vdd net_641#2 ProyectoIntegrador__and2_1x
Xc_w220 0 net_664#4 net_618#4 vdd net_615 ProyectoIntegrador__xor2_1x
Xc_w221 0 a31#0 vdd net_664 ProyectoIntegrador__id
Xc_w222 0 b31#0 vdd net_618 ProyectoIntegrador__id
Xc_w223 0 net_646 net_648#2 vdd net_662#2 ProyectoIntegrador__or2_1x
Xc_w224 0 net_643 net_615#2 vdd net_646#2 ProyectoIntegrador__and2_1x
Xc_w225 0 net_664#2 net_618#2 vdd net_648 ProyectoIntegrador__and2_1x
** Extracted Parasitic Capacitors ***
C0 net_662 0 1.082fF
C1 cout#0 0 0.817fF
C2 net_51 0 0.866fF
C3 sum0#0 0 0.68fF
C4 net_17 0 0.759fF
C5 sum1#0 0 1.004fF
C6 net_41 0 0.866fF
C7 sum2#0 0 1.004fF
C8 net_36 0 0.866fF
C9 sum3#0 0 1.004fF
C10 net_31 0 0.866fF
C11 sum4#0 0 0.896fF
C12 net_157 0 1.708fF
C13 sum5#0 0 0.788fF
C14 net_144#2 0 0.974fF
C15 sum6#0 0 1.327fF
C16 net_149#2 0 0.974fF
C17 sum7#0 0 1.219fF
C18 net_109#2 0 0.759fF
C19 sum8#0 0 0.788fF
C20 net_191#2 0 1.297fF
C21 sum9#0 0 1.004fF
C22 net_206#2 0 1.513fF
C23 sum10#0 0 1.219fF
C24 net_234 0 0.759fF
C25 sum11#0 0 1.219fF
C26 net_250 0 0.866fF
C27 sum12#0 0 1.111fF
C28 net_245 0 0.866fF
C29 sum13#0 0 1.004fF
C30 net_305 0 1.297fF
C31 sum14#0 0 0.788fF
C32 net_314 0 1.405fF
C33 sum15#0 0 1.004fF
C34 net_338#2 0 0.759fF
C35 sum16#0 0 0.788fF
C36 net_373#2 0 0.974fF
C37 sum17#0 0 1.219fF
C38 net_362#2 0 0.866fF
C39 sum18#0 0 1.004fF
C40 net_413#2 0 1.297fF
C41 sum19#0 0 0.788fF
C42 net_436#2 0 1.513fF
C43 sum20#0 0 1.111fF
C44 net_428#2 0 1.405fF
C45 sum21#0 0 1.004fF
C46 net_487 0 0.866fF
C47 sum22#0 0 1.219fF
C48 net_482 0 0.866fF
C49 sum23#0 0 1.111fF
C50 net_477 0 0.866fF
C51 sum24#0 0 0.896fF
C52 net_529 0 1.297fF
C53 sum25#0 0 1.004fF
C54 net_543 0 1.405fF
C55 sum26#0 0 0.896fF
C56 net_568#2 0 0.759fF
C57 sum27#0 0 0.817fF
C58 net_600#2 0 0.866fF
C59 sum28#0 0 0.817fF
C60 net_605#2 0 0.866fF
C61 sum29#0 0 0.817fF
C62 net_610#2 0 0.866fF
C63 sum30#0 0 0.817fF
C64 net_182#2 0 1.601fF
C65 sum31#0 0 0.68fF
C66 net_23 0 0.602fF
C67 net_78 0 0.974fF
C68 net_51#2 0 1.297fF
C69 cin#0 0 1.082fF
C70 net_23#4 0 0.68fF
C71 net_19 0 0.602fF
C72 net_99 0 1.082fF
C73 net_78#4 0 1.405fF
C74 a0#0 0 1.082fF
C75 net_19#4 0 0.68fF
C76 b0#0 0 1.19fF
C77 net_99#4 0 1.004fF
C78 net_46#2 0 0.71fF
C79 net_73 0 0.974fF
C80 net_17#2 0 1.19fF
C81 net_49#2 0 1.101fF
C82 net_76#2 0 1.131fF
C83 net_46 0 0.788fF
C84 net_23#2 0 0.524fF
C85 net_78#2 0 0.974fF
C86 net_49 0 0.788fF
C87 net_19#2 0 0.524fF
C88 net_99#2 0 1.082fF
C89 net_76 0 0.896fF
C90 net_43 0 0.71fF
C91 net_94 0 1.082fF
C92 net_73#4 0 1.405fF
C93 a1#0 0 1.082fF
C94 net_43#4 0 0.788fF
C95 b1#0 0 1.19fF
C96 net_94#4 0 1.004fF
C97 net_12#2 0 0.602fF
C98 net_68 0 0.974fF
C99 net_41#2 0 1.297fF
C100 net_15#2 0 0.994fF
C101 net_71#2 0 1.131fF
C102 net_12 0 0.68fF
C103 net_46#4 0 0.631fF
C104 net_73#2 0 0.974fF
C105 net_15 0 0.68fF
C106 net_43#2 0 0.631fF
C107 net_94#2 0 1.082fF
C108 net_71 0 0.896fF
C109 net_38 0 0.71fF
C110 net_89 0 1.082fF
C111 net_68#4 0 1.405fF
C112 a2#0 0 1.082fF
C113 net_38#4 0 0.788fF
C114 b2#0 0 1.19fF
C115 net_89#4 0 1.004fF
C116 net_7#2 0 0.602fF
C117 net_63 0 0.974fF
C118 net_36#2 0 1.297fF
C119 net_10#2 0 0.994fF
C120 net_66#2 0 1.131fF
C121 net_7 0 0.68fF
C122 net_12#4 0 0.524fF
C123 net_68#2 0 0.974fF
C124 net_10 0 0.68fF
C125 net_38#2 0 0.631fF
C126 net_89#2 0 1.082fF
C127 net_66 0 0.896fF
C128 net_33 0 0.71fF
C129 net_60 0 0.974fF
C130 net_63#4 0 1.405fF
C131 a3#0 0 0.974fF
C132 net_33#4 0 0.788fF
C133 b3#0 0 1.19fF
C134 net_60#4 0 0.896fF
C135 net_2#2 0 0.602fF
C136 net_55 0 0.974fF
C137 net_31#2 0 1.297fF
C138 net_5#2 0 0.994fF
C139 net_85#2 0 1.238fF
C140 net_2 0 0.68fF
C141 net_7#4 0 0.524fF
C142 net_63#2 0 0.974fF
C143 net_5 0 0.68fF
C144 net_33#2 0 0.631fF
C145 net_60#2 0 0.974fF
C146 net_85 0 1.004fF
C147 net_28 0 0.71fF
C148 net_82 0 1.082fF
C149 net_55#4 0 1.405fF
C150 a4#0 0 1.082fF
C151 net_28#4 0 0.788fF
C152 b4#0 0 1.19fF
C153 net_82#4 0 1.004fF
C154 net_138#4 0 0.817fF
C155 net_121#4 0 0.866fF
C156 net_157#2 0 1.513fF
C157 net_0#2 0 0.994fF
C158 net_53#2 0 1.131fF
C159 net_138 0 1.894fF
C160 net_2#4 0 0.524fF
C161 net_55#2 0 0.974fF
C162 net_0 0 0.68fF
C163 net_28#2 0 0.631fF
C164 net_82#2 0 1.082fF
C165 net_53 0 0.896fF
C166 net_220#4 0 1.894fF
C167 net_141#4 0 0.974fF
C168 net_121 0 1.297fF
C169 a5#0 0 1.836fF
C170 net_220 0 1.973fF
C171 b5#0 0 1.728fF
C172 net_141 0 0.896fF
C173 net_126#2 0 0.71fF
C174 net_159#4 0 1.082fF
C175 net_144 0 1.405fF
C176 net_218 0 2.178fF
C177 net_124 0 1.023fF
C178 net_126#4 0 0.788fF
C179 net_138#2 0 0.739fF
C180 net_121#2 0 0.866fF
C181 net_218#2 0 1.865fF
C182 net_220#2 0 1.816fF
C183 net_141#2 0 0.974fF
C184 net_124#2 0 0.788fF
C185 net_146#4 0 0.817fF
C186 net_201#4 0 1.405fF
C187 net_159 0 1.513fF
C188 a6#0 0 1.62fF
C189 net_146 0 0.896fF
C190 b6#0 0 1.513fF
C191 net_201 0 1.327fF
C192 net_131#2 0 0.71fF
C193 net_164#4 0 1.082fF
C194 net_149 0 1.405fF
C195 net_129 0 1.101fF
C196 net_162 0 1.238fF
C197 net_131#4 0 0.788fF
C198 net_126 0 0.631fF
C199 net_159#2 0 1.082fF
C200 net_129#2 0 0.788fF
C201 net_146#2 0 0.739fF
C202 net_201#2 0 1.405fF
C203 net_162#2 0 1.004fF
C204 net_134#4 0 0.71fF
C205 net_185#4 0 1.297fF
C206 net_164 0 1.513fF
C207 a7#0 0 1.19fF
C208 net_134 0 0.788fF
C209 b7#0 0 0.759fF
C210 net_185 0 1.219fF
C211 net_169#2 0 0.925fF
C212 net_153#4 0 0.974fF
C213 net_109 0 1.19fF
C214 net_151 0 1.209fF
C215 net_167 0 1.238fF
C216 net_169#4 0 1.004fF
C217 net_131 0 0.631fF
C218 net_164#2 0 1.082fF
C219 net_151#2 0 0.896fF
C220 net_134#2 0 0.631fF
C221 net_185#2 0 1.297fF
C222 net_167#2 0 1.004fF
C223 net_172#4 0 0.925fF
C224 net_188#4 0 1.297fF
C225 net_153 0 1.405fF
C226 a8#0 0 1.405fF
C227 net_172 0 1.004fF
C228 b8#0 0 0.974fF
C229 net_188 0 1.219fF
C230 net_113#2 0 0.602fF
C231 net_193#4 0 1.297fF
C232 net_191 0 1.728fF
C233 net_111 0 0.994fF
C234 net_177 0 1.346fF
C235 net_113#4 0 0.68fF
C236 net_169 0 0.847fF
C237 net_153#2 0 0.974fF
C238 net_111#2 0 0.68fF
C239 net_172#2 0 0.847fF
C240 net_188#2 0 1.297fF
C241 net_177#2 0 1.111fF
C242 net_179#4 0 1.033fF
C243 net_196#4 0 1.297fF
C244 net_193 0 1.728fF
C245 a9#0 0 1.836fF
C246 net_179 0 1.111fF
C247 b9#0 0 1.728fF
C248 net_196 0 1.219fF
C249 net_118#2 0 0.602fF
C250 net_208#4 0 1.513fF
C251 net_206 0 1.943fF
C252 net_116 0 0.994fF
C253 net_212 0 1.777fF
C254 net_118#4 0 0.68fF
C255 net_113 0 0.524fF
C256 net_193#2 0 1.297fF
C257 net_116#2 0 0.68fF
C258 net_179#2 0 0.955fF