*** SPICE deck for cell rippleCarry16;1{lay} from library ProyectoIntegrador
*** Created on mar sep 02, 2014 20:07:41
*** Last revised on jue oct 02, 2014 20:52:15
*** Written on dom oct 05, 2014 22:16:06 by Electric VLSI Design System, 
*** version 9.05
*** Layout tech: mocmos, foundry MOSIS
*** UC SPICE *** , MIN_RESIST 0.5, MIN_CAPAC 0.5FF
***    P-Active:	areacap=1.167FF/um^2,	edgecap=0.203FF/um,	res=7.5ohms/sq
***    N-Active:	areacap=0.982FF/um^2,	edgecap=0.244FF/um,	res=6.7ohms/sq
***    
*** Polysilicon-1:	areacap=0.1467FF/um^2,	edgecap=0.0608FF/um,	res=7.8ohms/sq
***    Transistor-Poly:	areacap=0.09FF/um^2,	edgecap=0.0FF/um,	res=2.5ohms/sq
***    Poly-Cut:	areacap=0.0FF/um^2,	edgecap=0.0FF/um,	res=10.5ohms/sq
***    Active-Cut:	areacap=0.0FF/um^2,	edgecap=0.0FF/um,	res=12.2ohms/sq
***    Metal-1:	areacap=0.1209FF/um^2,	edgecap=0.1104FF/um,	res=0.08ohms/sq
***    Via1:	areacap=0.0FF/um^2,	edgecap=0.0FF/um,	res=5.69ohms/sq
***    Metal-2:	areacap=0.0843FF/um^2,	edgecap=0.0974FF/um,	res=0.08ohms/sq
***    Via2:	areacap=0.0FF/um^2,	edgecap=0.0FF/um,	res=11.39ohms/sq
***    Metal-3:	areacap=0.0843FF/um^2,	edgecap=0.0974FF/um,	res=0.08ohms/sq
***    Via3:	areacap=0.0FF/um^2,	edgecap=0.0FF/um,	res=16.73ohms/sq
***    Metal-4:	areacap=0.0843FF/um^2,	edgecap=0.0974FF/um,	res=0.08ohms/sq
***    Via4:	areacap=0.0FF/um^2,	edgecap=0.0FF/um,	res=21.44ohms/sq
***    Metal-5:	areacap=0.0843FF/um^2,	edgecap=0.0974FF/um,	res=0.07ohms/sq
***    Via5:	areacap=0.0FF/um^2,	edgecap=0.0FF/um,	res=24.08ohms/sq
***    Metal-6:	areacap=0.0423FF/um^2,	edgecap=0.1273FF/um,	res=0.03ohms/sq
***    Hi-Res:	areacap=0.0FF/um^2,	edgecap=0.0FF/um,	res=1.0ohms/sq
* Model cards are described in this file:
.include /home/lean/tfinal/trabajo/models/tsmc180nm.model

*** SUBCIRCUIT ProyectoIntegrador__id FROM CELL id{lay}
.SUBCKT ProyectoIntegrador__id vss a vdd y
Mnmos_0 net_10 a#1nmos@0_poly-right 0 0 N L=0.2U W=0.4U AS=0.6P AD=0.3P 
+PS=5.8U PD=2.2U
Mnmos_1 y#0contact@11_metal-1-n-act net_10#6nmos@1_poly-right 0 0 N L=0.2U 
+W=0.4U AS=0.6P AD=0.3P PS=5.8U PD=2.2U
Mpmos_0 net_10#2contact@4_metal-1-p-act a#5pmos@0_poly-left vdd vdd P L=0.2U 
+W=0.8U AS=0.8P AD=0.3P PS=6.6U PD=2.2U
Mpmos_1 y#2contact@12_metal-1-p-act net_10#10pmos@1_poly-left vdd vdd P 
+L=0.2U W=0.8U AS=0.8P AD=0.3P PS=6.6U PD=2.2U
** Extracted Parasitic Capacitors ***
C0 net_10 0 0.649fF
C1 net_10#2contact@4_metal-1-p-act 0 0.623fF
C2 y#0contact@11_metal-1-n-act 0 0.546fF
C3 y#2contact@12_metal-1-p-act 0 0.726fF
C4 net_10#4contact@15_metal-1-metal-2 0 1.495fF
C5 y 0 1.272fF
C6 a#3pin@32_polysilicon-1 0 0.66fF
C7 net_10#8pin@38_polysilicon-1 0 0.66fF
** Extracted Parasitic Resistors ***
R0 a#1nmos@0_poly-right a#2pin@29_polysilicon-1 15.6
R1 a#3pin@32_polysilicon-1 a#2pin@29_polysilicon-1 181.35
R2 a#4pin@31_polysilicon-1 a#3pin@32_polysilicon-1 157.95
R3 a a#3pin@32_polysilicon-1 1.95
R4 a#5pmos@0_poly-left a#4pin@31_polysilicon-1 15.6
R5 net_10#6nmos@1_poly-right net_10#7pin@36_polysilicon-1 15.6
R6 net_10#8pin@38_polysilicon-1 net_10#7pin@36_polysilicon-1 181.35
R7 net_10#9pin@37_polysilicon-1 net_10#8pin@38_polysilicon-1 157.95
R8 net_10#4contact@15_metal-1-metal-2 net_10#8pin@38_polysilicon-1 1.95
R9 net_10#10pmos@1_poly-left net_10#9pin@37_polysilicon-1 15.6
R10 y#2contact@12_metal-1-p-act y 1.507
R11 net_10#2contact@4_metal-1-p-act net_10#4contact@15_metal-1-metal-2 1.293
R12 net_10#4contact@15_metal-1-metal-2 net_10 1.347
R13 y#0contact@11_metal-1-n-act y 1.133
.ENDS ProyectoIntegrador__id

*** SUBCIRCUIT ProyectoIntegrador__xor2 FROM CELL xor2{lay}
.SUBCKT ProyectoIntegrador__xor2 vss a b vdd y
Mnmos_0 net_79 a#9nmos@0_poly-right 0 0 N L=0.2U W=0.4U AS=0.44P AD=0.088P 
+PS=4.2U PD=0.85U
Mnmos_1 net_76 net_160#11nmos@1_poly-right y#0contact@4_metal-1-n-act 0 N 
+L=0.2U W=0.4U AS=0.12P AD=0.088P PS=1U PD=0.85U
Mnmos_2 0 net_270#10nmos@2_poly-right net_76 0 N L=0.2U W=0.4U AS=0.088P 
+AD=0.44P PS=0.85U PD=4.2U
Mnmos_3 y#0contact@4_metal-1-n-act b#5nmos@3_poly-right net_79 0 N L=0.2U 
+W=0.4U AS=0.088P AD=0.12P PS=0.85U PD=1U
Mnmos_4 net_160#12contact@20_metal-1-n-act b#0nmos@4_poly-right 0 0 N L=0.2U 
+W=0.4U AS=0.44P AD=0.2P PS=4.2U PD=1.8U
Mnmos_5 0 a#5nmos@5_poly-right net_270#2contact@38_metal-1-metal-2 0 N L=0.2U 
+W=0.4U AS=0.2P AD=0.44P PS=1.8U PD=4.2U
Mpmos_0 net_68 net_270#12pmos@0_poly-left vdd vdd P L=0.2U W=0.4U AS=0.44P 
+AD=0.088P PS=4.2U PD=0.85U
Mpmos_1 y b#11pmos@1_poly-left net_68 vdd P L=0.2U W=0.4U AS=0.088P AD=0.12P 
+PS=0.85U PD=1U
Mpmos_2 net_70 net_160#5pmos@2_poly-left y vdd P L=0.2U W=0.4U AS=0.12P 
+AD=0.088P PS=1U PD=0.85U
Mpmos_4 vdd a#12pmos@4_poly-left net_70 vdd P L=0.2U W=0.4U AS=0.088P 
+AD=0.44P PS=0.85U PD=4.2U
Mpmos_5 vdd a#1pmos@5_poly-left net_270 vdd P L=0.2U W=0.4U AS=0.2P AD=0.44P 
+PS=1.8U PD=4.2U
Mpmos_6 net_160 b#13pmos@6_poly-left vdd vdd P L=0.2U W=0.4U AS=0.44P AD=0.2P 
+PS=4.2U PD=1.8U
** Extracted Parasitic Capacitors ***
C0 y#0contact@4_metal-1-n-act 0 1.163fF
C1 y 0 1.163fF
C2 a#0contact@12_metal-1-polysilicon-1 0 0.628fF
C3 net_160#12contact@20_metal-1-n-act 0 0.594fF
C4 net_160 0 0.708fF
C5 a 0 1.289fF
C6 b 0 0.563fF
C7 net_270 0 1.519fF
C8 net_270#1contact@39_metal-1-metal-2 0 1.247fF
C9 net_160#2contact@45_metal-1-metal-2 0 1.373fF
C10 net_270#4contact@49_metal-1-polysilicon-1 0 0.653fF
C11 b#2pin@88_polysilicon-1 0 0.691fF
C12 b#8pin@112_polysilicon-1 0 0.509fF
** Extracted Parasitic Resistors ***
R0 y y#0contact@4_metal-1-n-act 2.413
R1 a#0contact@12_metal-1-polysilicon-1 a 0.76
R2 a#1pmos@5_poly-left a#2pin@74_polysilicon-1 15.6
R3 a#2pin@74_polysilicon-1 a#2pin@74_polysilicon-1##0 118.95
R4 a#2pin@74_polysilicon-1##0 a 118.95
R5 a#4pin@75_polysilicon-1 a#5nmos@5_poly-right 15.6
R6 a a#4pin@75_polysilicon-1 117
R7 b#0nmos@4_poly-right b#1pin@77_polysilicon-1 31.2
R8 b#1pin@77_polysilicon-1 b#2pin@88_polysilicon-1 183.3
R9 b#2pin@88_polysilicon-1 b#4pin@126_polysilicon-1 171.6
R10 b b#2pin@88_polysilicon-1 1.95
R11 net_270 net_270#1contact@39_metal-1-metal-2 1.107
R12 net_270#1contact@39_metal-1-metal-2 net_270#2contact@38_metal-1-metal-2 
+0.653
R13 net_160#2contact@45_metal-1-metal-2 net_160 1.467
R14 net_160#2contact@45_metal-1-metal-2 
+net_160#4contact@44_metal-1-polysilicon-1 0.6
R15 net_270#3pin@117_polysilicon-1 net_270#4contact@49_metal-1-polysilicon-1 
+68.25
R16 net_270#7pin@101_polysilicon-1 net_270 1.95
R17 net_270#1contact@39_metal-1-metal-2 
+net_270#4contact@49_metal-1-polysilicon-1 1.08
R18 a#0contact@12_metal-1-polysilicon-1 
+a#0contact@12_metal-1-polysilicon-1##0 101.4
R19 a#0contact@12_metal-1-polysilicon-1##0 a#8pin@128_polysilicon-1 101.4
R20 b#5nmos@3_poly-right b#6pin@104_polysilicon-1 39
R21 b#6pin@104_polysilicon-1 b#7pin@105_polysilicon-1 7.8
R22 b#7pin@105_polysilicon-1 b#8pin@112_polysilicon-1 142.35
R23 b#9pin@106_polysilicon-1 b#10pin@107_polysilicon-1 7.8
R24 b#10pin@107_polysilicon-1 b#11pmos@1_poly-left 54.6
R25 net_160#5pmos@2_poly-left net_160#6pin@108_polysilicon-1 74.1
R26 net_160#6pin@108_polysilicon-1 net_160#7pin@109_polysilicon-1 7.8
R27 net_160#7pin@109_polysilicon-1 net_160#8pin@113_polysilicon-1 130.65
R28 net_160#9pin@110_polysilicon-1 net_160#10pin@111_polysilicon-1 7.8
R29 net_160#10pin@111_polysilicon-1 net_160#11nmos@1_poly-right 58.5
R30 b b#12contact@48_metal-1-polysilicon-1 0.547
R31 b#8pin@112_polysilicon-1 b#9pin@106_polysilicon-1 118.95
R32 b#12contact@48_metal-1-polysilicon-1 b#8pin@112_polysilicon-1 1.95
R33 net_160#8pin@113_polysilicon-1 net_160#9pin@110_polysilicon-1 91.65
R34 net_160#4contact@44_metal-1-polysilicon-1 net_160#8pin@113_polysilicon-1 
+1.95
R35 net_160#12contact@20_metal-1-n-act net_160#2contact@45_metal-1-metal-2 
+1.16
R36 net_270#10nmos@2_poly-right net_270#11pin@116_polysilicon-1 19.5
R37 net_270#11pin@116_polysilicon-1 net_270#3pin@117_polysilicon-1 31.2
R38 a#9nmos@0_poly-right a#10pin@121_polysilicon-1 19.5
R39 a#10pin@121_polysilicon-1 a#11pin@122_polysilicon-1 15.6
R40 a#11pin@122_polysilicon-1 a 101.4
R41 net_270#12pmos@0_poly-left net_270#13pin@123_polysilicon-1 35.1
R42 net_270#13pin@123_polysilicon-1 net_270#14pin@124_polysilicon-1 15.6
R43 net_270#14pin@124_polysilicon-1 net_270 76.05
R44 a#12pmos@4_poly-left a#13pin@127_polysilicon-1 35.1
R45 a#13pin@127_polysilicon-1 a#8pin@128_polysilicon-1 15.6
R46 b#13pmos@6_poly-left b#4pin@126_polysilicon-1 31.2
.ENDS ProyectoIntegrador__xor2

*** SUBCIRCUIT ProyectoIntegrador__or2 FROM CELL or2{lay}
.SUBCKT ProyectoIntegrador__or2 vss a b vdd y
Mnmos_0 net_56#2contact@3_metal-1-n-act a#1nmos@0_poly-right 0 0 N L=0.2U 
+W=0.4U AS=0.52P AD=0.147P PS=5U PD=1.267U
Mnmos_1 0 b#3nmos@1_poly-right net_56#2contact@3_metal-1-n-act 0 N L=0.2U 
+W=0.4U AS=0.147P AD=0.52P PS=1.267U PD=5U
Mnmos_2 y#0contact@12_metal-1-n-act net_56#9nmos@2_poly-right 0 0 N L=0.2U 
+W=0.4U AS=0.52P AD=0.3P PS=5U PD=2.2U
Mpmos_0 net_55 a#3pmos@0_poly-left vdd vdd P L=0.2U W=0.4U AS=0.78P AD=0.088P 
+PS=7U PD=0.85U
Mpmos_1 net_56 b#1pmos@1_poly-left net_55 vdd P L=0.2U W=0.4U AS=0.088P 
+AD=0.147P PS=0.85U PD=1.267U
Mpmos_2 y#2contact@13_metal-1-p-act net_56#14pmos@2_poly-left vdd vdd P 
+L=0.2U W=0.8U AS=0.78P AD=0.3P PS=7U PD=2.2U
** Extracted Parasitic Capacitors ***
C0 net_56 0 0.688fF
C1 y#0contact@12_metal-1-n-act 0 0.546fF
C2 y#2contact@13_metal-1-p-act 0 0.726fF
C3 net_56#13contact@14_metal-1-polysilicon-1 0 1.116fF
C4 y 0 1.272fF
C5 a#5pin@19_polysilicon-1 0 0.513fF
C6 net_56#6pin@24_metal-1 0 0.848fF
C7 net_56#11pin@32_polysilicon-1 0 0.66fF
** Extracted Parasitic Resistors ***
R0 a#1nmos@0_poly-right a#2pin@13_polysilicon-1 15.6
R1 a#3pmos@0_poly-left a#4pin@14_polysilicon-1 15.6
R2 a#4pin@14_polysilicon-1 a#5pin@19_polysilicon-1 79.95
R3 b#1pmos@1_poly-left b#2pin@15_polysilicon-1 19.5
R4 b#3nmos@1_poly-right b#4pin@16_polysilicon-1 19.5
R5 b#2pin@15_polysilicon-1 b#5pin@17_polysilicon-1 7.8
R6 b#5pin@17_polysilicon-1 b#6pin@20_polysilicon-1 89.7
R7 b#7pin@18_polysilicon-1 b#4pin@16_polysilicon-1 15.6
R8 a#5pin@19_polysilicon-1 a#5pin@19_polysilicon-1##0 137.475
R9 a#5pin@19_polysilicon-1##0 a#2pin@13_polysilicon-1 137.475
R10 a#5pin@19_polysilicon-1 a 1.95
R11 b#6pin@20_polysilicon-1 b#6pin@20_polysilicon-1##0 113.1
R12 b#6pin@20_polysilicon-1##0 b#7pin@18_polysilicon-1 113.1
R13 b#6pin@20_polysilicon-1 b 1.95
R14 net_56#2contact@3_metal-1-n-act net_56#6pin@24_metal-1 0.693
R15 net_56#9nmos@2_poly-right net_56#10pin@30_polysilicon-1 15.6
R16 net_56#11pin@32_polysilicon-1 net_56#10pin@30_polysilicon-1 181.35
R17 net_56#12pin@31_polysilicon-1 net_56#11pin@32_polysilicon-1 157.95
R18 net_56#13contact@14_metal-1-polysilicon-1 net_56#11pin@32_polysilicon-1 
+1.95
R19 y#2contact@13_metal-1-p-act y 1.507
R20 y y#0contact@12_metal-1-n-act 1.133
R21 net_56#14pmos@2_poly-left net_56#12pin@31_polysilicon-1 15.6
R22 net_56#6pin@24_metal-1 net_56#13contact@14_metal-1-polysilicon-1 0.64
R23 net_56#13contact@14_metal-1-polysilicon-1 net_56 1.293
.ENDS ProyectoIntegrador__or2

*** SUBCIRCUIT ProyectoIntegrador__and2 FROM CELL and2{lay}
.SUBCKT ProyectoIntegrador__and2 vss a b vdd y
Mnmos_0 net_121 b#7nmos@0_poly-right net_149 0 N L=0.2U W=0.4U AS=0.088P 
+AD=0.147P PS=0.85U PD=1.267U
Mnmos_1 net_149 a#5nmos@1_poly-right 0 0 N L=0.2U W=0.4U AS=0.68P AD=0.088P 
+PS=6.6U PD=0.85U
Mnmos_2 y#0contact@13_metal-1-n-act net_121#13nmos@2_poly-right 0 0 N L=0.2U 
+W=0.4U AS=0.68P AD=0.3P PS=6.6U PD=2.2U
Mpmos_0 vdd b#1pmos@0_poly-left net_121#2contact@2_metal-1-p-act vdd P L=0.2U 
+W=0.4U AS=0.147P AD=0.587P PS=1.267U PD=5.267U
Mpmos_1 net_121#2contact@2_metal-1-p-act a#1pmos@1_poly-left vdd vdd P L=0.2U 
+W=0.4U AS=0.587P AD=0.147P PS=5.267U PD=1.267U
Mpmos_2 y#2contact@14_metal-1-p-act net_121#7pmos@2_poly-left vdd vdd P 
+L=0.2U W=0.8U AS=0.587P AD=0.3P PS=5.267U PD=2.2U
** Extracted Parasitic Capacitors ***
C0 net_121 0 0.797fF
C1 net_121#2contact@2_metal-1-p-act 0 0.514fF
C2 y#0contact@13_metal-1-n-act 0 0.546fF
C3 y#2contact@14_metal-1-p-act 0 0.726fF
C4 y 0 1.272fF
C5 net_121#3pin@35_metal-1 0 2.19fF
C6 b#4pin@29_polysilicon-1 0 0.615fF
C7 a#3pin@33_polysilicon-1 0 0.518fF
** Extracted Parasitic Resistors ***
R0 a#1pmos@1_poly-left a#2pin@22_polysilicon-1 15.6
R1 a#2pin@22_polysilicon-1 a#2pin@22_polysilicon-1##0 133.575
R2 a#2pin@22_polysilicon-1##0 a#3pin@33_polysilicon-1 133.575
R3 b#1pmos@0_poly-left b#2pin@25_polysilicon-1 19.5
R4 b#2pin@25_polysilicon-1 b#3pin@26_polysilicon-1 15.6
R5 b#3pin@26_polysilicon-1 b#4pin@29_polysilicon-1 156
R6 b#5pin@27_polysilicon-1 b#6pin@28_polysilicon-1 7.8
R7 b#6pin@28_polysilicon-1 b#7nmos@0_poly-right 19.5
R8 b#4pin@29_polysilicon-1 b#5pin@27_polysilicon-1 159.9
R9 b b#4pin@29_polysilicon-1 1.95
R10 a#3pin@33_polysilicon-1 a#4pin@23_polysilicon-1 87.75
R11 a#3pin@33_polysilicon-1 a 1.95
R12 a#4pin@23_polysilicon-1 a#5nmos@1_poly-right 15.6
R13 net_121#2contact@2_metal-1-p-act net_121#3pin@35_metal-1 1.067
R14 y#2contact@14_metal-1-p-act y 1.507
R15 y y#0contact@13_metal-1-n-act 1.133
R16 net_121#7pmos@2_poly-left net_121#8pin@40_polysilicon-1 15.6
R17 net_121#3pin@35_metal-1 net_121 1.547
R18 net_121#11pin@39_polysilicon-1 net_121#11pin@39_polysilicon-1##0 106.275
R19 net_121#11pin@39_polysilicon-1##0 net_121#3pin@35_metal-1 106.275
R20 net_121#3pin@35_metal-1 net_121#8pin@40_polysilicon-1 126.75
R21 net_121#11pin@39_polysilicon-1 net_121#13nmos@2_poly-right 15.6
.ENDS ProyectoIntegrador__and2

*** TOP LEVEL CELL: rippleCarry16;1{lay}
Xc_cout 0 net_327 vdd cout#0c_cout_y ProyectoIntegrador__id
Xc_sum0 0 net_27 vdd sum0#0c_sum0_y ProyectoIntegrador__id
Xc_sum1 0 net_5 vdd sum1#0c_sum1_y ProyectoIntegrador__id
Xc_sum2 0 net_42 vdd sum2#0c_sum2_y ProyectoIntegrador__id
Xc_sum3 0 net_75#2c_sum3_a vdd sum3#0c_sum3_y ProyectoIntegrador__id
Xc_sum4 0 net_54#2c_sum4_a vdd sum4#0c_sum4_y ProyectoIntegrador__id
Xc_sum5 0 net_110#2c_sum5_a vdd sum5#0c_sum5_y ProyectoIntegrador__id
Xc_sum6 0 net_127 vdd sum6#0c_sum6_y ProyectoIntegrador__id
Xc_sum7 0 net_158 vdd sum7#0c_sum7_y ProyectoIntegrador__id
Xc_sum8 0 net_171#2c_sum8_a vdd sum8#0c_sum8_y ProyectoIntegrador__id
Xc_sum9 0 net_187#2c_sum9_a vdd sum9#0c_sum9_y ProyectoIntegrador__id
Xc_sum10 0 net_211#2c_sum10_a vdd sum10#0c_sum10_y ProyectoIntegrador__id
Xc_sum11 0 net_233 vdd sum11#0c_sum11_y ProyectoIntegrador__id
Xc_sum12 0 net_241 vdd sum12#0c_sum12_y ProyectoIntegrador__id
Xc_sum13 0 net_284 vdd sum13#0c_sum13_y ProyectoIntegrador__id
Xc_sum14 0 net_315#2c_sum14_a vdd sum14#0c_sum14_y ProyectoIntegrador__id
Xc_sum15 0 net_85#2c_sum15_a vdd sum15#0c_sum15_y ProyectoIntegrador__id
Xc_w1 0 net_11 net_39 vdd net_27#2c_w1_y ProyectoIntegrador__xor2
Xc_w2 0 cin#0c_w2_a vdd net_11#4c_w2_y ProyectoIntegrador__id
Xc_w3 0 net_7 net_36 vdd net_39#4c_w3_y ProyectoIntegrador__xor2
Xc_w4 0 a0#0c_w4_a vdd net_7#4c_w4_y ProyectoIntegrador__id
Xc_w5 0 b0#0c_w5_a vdd net_36#4c_w5_y ProyectoIntegrador__id
Xc_w6 0 net_22#2c_w6_a net_31 vdd net_5#2c_w6_y ProyectoIntegrador__xor2
Xc_w7 0 net_25#2c_w7_a net_48#2c_w7_b vdd net_22 ProyectoIntegrador__or2
Xc_w8 0 net_11#2c_w8_a net_39#2c_w8_b vdd net_25 ProyectoIntegrador__and2
Xc_w9 0 net_7#2c_w9_a net_36#2c_w9_b vdd net_48 ProyectoIntegrador__and2
Xc_w10 0 net_19 net_45 vdd net_31#4c_w10_y ProyectoIntegrador__xor2
Xc_w11 0 a1#0c_w11_a vdd net_19#4c_w11_y ProyectoIntegrador__id
Xc_w12 0 b1#0c_w12_a vdd net_45#4c_w12_y ProyectoIntegrador__id
Xc_w13 0 net_15#2c_w13_a net_0 vdd net_42#2c_w13_y ProyectoIntegrador__xor2
Xc_w14 0 net_3#2c_w14_a net_29#2c_w14_b vdd net_15 ProyectoIntegrador__or2
Xc_w15 0 net_22#4c_w15_a net_31#2c_w15_b vdd net_3 ProyectoIntegrador__and2
Xc_w16 0 net_19#2c_w16_a net_45#2c_w16_b vdd net_29 ProyectoIntegrador__and2
Xc_w17 0 net_72#2c_w17_a net_96#2c_w17_b vdd net_0#4c_w17_y 
+ProyectoIntegrador__xor2
Xc_w18 0 a2#0c_w18_a vdd net_72 ProyectoIntegrador__id
Xc_w19 0 b2#0c_w19_a vdd net_96 ProyectoIntegrador__id
Xc_w20 0 net_65#2c_w20_a net_90#4c_w20_b vdd net_75 ProyectoIntegrador__xor2
Xc_w21 0 net_88 net_63 vdd net_65#4c_w21_y ProyectoIntegrador__or2
Xc_w22 0 net_15#4c_w22_a net_0#2c_w22_b vdd net_88#2c_w22_y 
+ProyectoIntegrador__and2
Xc_w23 0 net_72#4c_w23_a net_96#4c_w23_b vdd net_63#2c_w23_y 
+ProyectoIntegrador__and2
Xc_w24 0 net_68#4c_w24_a net_99#4c_w24_b vdd net_90 ProyectoIntegrador__xor2
Xc_w25 0 a3#0c_w25_a vdd net_68 ProyectoIntegrador__id
Xc_w26 0 b3#0c_w26_a vdd net_99 ProyectoIntegrador__id
Xc_w27 0 net_79#2c_w27_a net_56#4c_w27_b vdd net_54 ProyectoIntegrador__xor2
Xc_w28 0 net_77 net_93 vdd net_79#4c_w28_y ProyectoIntegrador__or2
Xc_w29 0 net_65 net_90#2c_w29_b vdd net_77#2c_w29_y ProyectoIntegrador__and2
Xc_w30 0 net_68#2c_w30_a net_99#2c_w30_b vdd net_93#2c_w30_y 
+ProyectoIntegrador__and2
Xc_w31 0 net_102#4c_w31_a net_59#4c_w31_b vdd net_56 ProyectoIntegrador__xor2
Xc_w32 0 a4#0c_w32_a vdd net_102 ProyectoIntegrador__id
Xc_w33 0 b4#0c_w33_a vdd net_59 ProyectoIntegrador__id
Xc_w34 0 net_132#2c_w34_a net_118#2c_w34_b vdd net_110 
+ProyectoIntegrador__xor2
Xc_w35 0 net_82 net_107 vdd net_132#4c_w35_y ProyectoIntegrador__or2
Xc_w36 0 net_79 net_56#2c_w36_b vdd net_82#2c_w36_y ProyectoIntegrador__and2
Xc_w37 0 net_102#2c_w37_a net_59#2c_w37_b vdd net_107#2c_w37_y 
+ProyectoIntegrador__and2
Xc_w38 0 net_168 net_129 vdd net_118#4c_w38_y ProyectoIntegrador__xor2
Xc_w39 0 a5#0c_w39_a vdd net_168#4c_w39_y ProyectoIntegrador__id
Xc_w40 0 b5#0c_w40_a vdd net_129#4c_w40_y ProyectoIntegrador__id
Xc_w41 0 net_144#2c_w41_a net_113 vdd net_127#2c_w41_y 
+ProyectoIntegrador__xor2
Xc_w42 0 net_152#2c_w42_a net_116#2c_w42_b vdd net_144 
+ProyectoIntegrador__or2
Xc_w43 0 net_132 net_118 vdd net_152 ProyectoIntegrador__and2
Xc_w44 0 net_168#2c_w44_a net_129#2c_w44_b vdd net_116 
+ProyectoIntegrador__and2
Xc_w45 0 net_149 net_124 vdd net_113#4c_w45_y ProyectoIntegrador__xor2
Xc_w46 0 a6#0c_w46_a vdd net_149#4c_w46_y ProyectoIntegrador__id
Xc_w47 0 b6#0c_w47_a vdd net_124#4c_w47_y ProyectoIntegrador__id
Xc_w48 0 net_139#2c_w48_a net_155 vdd net_158#2c_w48_y 
+ProyectoIntegrador__xor2
Xc_w49 0 net_142#2c_w49_a net_165#2c_w49_b vdd net_139 
+ProyectoIntegrador__or2
Xc_w50 0 net_144#4c_w50_a net_113#2c_w50_b vdd net_142 
+ProyectoIntegrador__and2
Xc_w51 0 net_149#2c_w51_a net_124#2c_w51_b vdd net_165 
+ProyectoIntegrador__and2
Xc_w52 0 net_136 net_162 vdd net_155#4c_w52_y ProyectoIntegrador__xor2
Xc_w53 0 a7#0c_w53_a vdd net_136#4c_w53_y ProyectoIntegrador__id
Xc_w54 0 b7#0c_w54_a vdd net_162#4c_w54_y ProyectoIntegrador__id
Xc_w55 0 net_219#2c_w55_a net_173#4c_w55_b vdd net_171 
+ProyectoIntegrador__xor2
Xc_w56 0 net_193#2c_w56_a net_182#2c_w56_b vdd net_219#4c_w56_y 
+ProyectoIntegrador__or2
Xc_w57 0 net_139#4c_w57_a net_155#2c_w57_b vdd net_193 
+ProyectoIntegrador__and2
Xc_w58 0 net_136#2c_w58_a net_162#2c_w58_b vdd net_182 
+ProyectoIntegrador__and2
Xc_w59 0 net_224#4c_w59_a net_184#4c_w59_b vdd net_173 
+ProyectoIntegrador__xor2
Xc_w60 0 a8#0c_w60_a vdd net_224 ProyectoIntegrador__id
Xc_w61 0 b8#0c_w61_a vdd net_184 ProyectoIntegrador__id
Xc_w62 0 net_195#2c_w62_a net_178#4c_w62_b vdd net_187 
+ProyectoIntegrador__xor2
Xc_w63 0 net_222 net_176 vdd net_195#4c_w63_y ProyectoIntegrador__or2
Xc_w64 0 net_219 net_173#2c_w64_b vdd net_222#2c_w64_y 
+ProyectoIntegrador__and2
Xc_w65 0 net_224#2c_w65_a net_184#2c_w65_b vdd net_176#2c_w65_y 
+ProyectoIntegrador__and2
Xc_w66 0 net_198#4c_w66_a net_189#4c_w66_b vdd net_178 
+ProyectoIntegrador__xor2
Xc_w67 0 a9#0c_w67_a vdd net_198 ProyectoIntegrador__id
Xc_w68 0 b9#0c_w68_a vdd net_189 ProyectoIntegrador__id
Xc_w69 0 net_216#2c_w69_a net_205#4c_w69_b vdd net_211 
+ProyectoIntegrador__xor2
Xc_w70 0 net_203 net_214 vdd net_216#4c_w70_y ProyectoIntegrador__or2
Xc_w71 0 net_195 net_178#2c_w71_b vdd net_203#2c_w71_y 
+ProyectoIntegrador__and2
Xc_w72 0 net_198#2c_w72_a net_189#2c_w72_b vdd net_214#2c_w72_y 
+ProyectoIntegrador__and2
Xc_w73 0 net_251#4c_w73_a net_267#4c_w73_b vdd net_205 
+ProyectoIntegrador__xor2
Xc_w74 0 a10#0c_w74_a vdd net_251#2c_w74_y ProyectoIntegrador__id
Xc_w75 0 b10#0c_w75_a vdd net_267 ProyectoIntegrador__id
Xc_w76 0 net_246#2c_w76_a net_264 vdd net_233#2c_w76_y 
+ProyectoIntegrador__xor2
Xc_w77 0 net_249#2c_w77_a net_279#2c_w77_b vdd net_246 
+ProyectoIntegrador__or2
Xc_w78 0 net_216 net_205#2c_w78_b vdd net_249 ProyectoIntegrador__and2
Xc_w79 0 net_251 net_267#2c_w79_b vdd net_279 ProyectoIntegrador__and2
Xc_w80 0 net_243 net_276 vdd net_264#4c_w80_y ProyectoIntegrador__xor2
Xc_w81 0 a11#0c_w81_a vdd net_243#4c_w81_y ProyectoIntegrador__id
Xc_w82 0 b11#0c_w82_a vdd net_276#4c_w82_y ProyectoIntegrador__id
Xc_w83 0 net_259#2c_w83_a net_228 vdd net_241#2c_w83_y 
+ProyectoIntegrador__xor2
Xc_w84 0 net_231#2c_w84_a net_262#2c_w84_b vdd net_259 
+ProyectoIntegrador__or2
Xc_w85 0 net_246#4c_w85_a net_264#2c_w85_b vdd net_231 
+ProyectoIntegrador__and2
Xc_w86 0 net_243#2c_w86_a net_276#2c_w86_b vdd net_262 
+ProyectoIntegrador__and2
Xc_w87 0 net_273 net_256 vdd net_228#4c_w87_y ProyectoIntegrador__xor2
Xc_w88 0 a12#0c_w88_a vdd net_273#4c_w88_y ProyectoIntegrador__id
Xc_w89 0 b12#0c_w89_a vdd net_256#4c_w89_y ProyectoIntegrador__id
Xc_w90 0 net_236#2c_w90_a net_298#2c_w90_b vdd net_284#2c_w90_y 
+ProyectoIntegrador__xor2
Xc_w91 0 net_239#2c_w91_a net_281#2c_w91_b vdd net_236 
+ProyectoIntegrador__or2
Xc_w92 0 net_259#4c_w92_a net_228#2c_w92_b vdd net_239 
+ProyectoIntegrador__and2
Xc_w93 0 net_273#2c_w93_a net_256#2c_w93_b vdd net_281 
+ProyectoIntegrador__and2
Xc_w94 0 net_312#4c_w94_a net_332#4c_w94_b vdd net_298 
+ProyectoIntegrador__xor2
Xc_w95 0 a13#0c_w95_a vdd net_312 ProyectoIntegrador__id
Xc_w96 0 b13#0c_w96_a vdd net_332 ProyectoIntegrador__id
Xc_w97 0 net_291#2c_w97_a net_317#4c_w97_b vdd net_315 
+ProyectoIntegrador__xor2
Xc_w98 0 net_289 net_301 vdd net_291#4c_w98_y ProyectoIntegrador__or2
Xc_w99 0 net_236#4c_w99_a net_298#4c_w99_b vdd net_289#2c_w99_y 
+ProyectoIntegrador__and2
Xc_w100 0 net_312#2c_w100_a net_332#2c_w100_b vdd net_301#2c_w100_y 
+ProyectoIntegrador__and2
Xc_w101 0 net_303#4c_w101_a net_335#4c_w101_b vdd net_317 
+ProyectoIntegrador__xor2
Xc_w102 0 a14#0c_w102_a vdd net_303 ProyectoIntegrador__id
Xc_w103 0 b14#0c_w103_a vdd net_335 ProyectoIntegrador__id
Xc_w104 0 net_322#2c_w104_a net_306#4c_w104_b vdd net_85#14c_w104_y 
+ProyectoIntegrador__xor2
Xc_w105 0 net_294 net_320 vdd net_322#4c_w105_y ProyectoIntegrador__or2
Xc_w106 0 net_291 net_317#2c_w106_b vdd net_294#2c_w106_y 
+ProyectoIntegrador__and2
Xc_w107 0 net_303#2c_w107_a net_335#2c_w107_b vdd net_320#2c_w107_y 
+ProyectoIntegrador__and2
Xc_w108 0 net_329#4c_w108_a net_309#4c_w108_b vdd net_306 
+ProyectoIntegrador__xor2
Xc_w109 0 a15#0c_w109_a vdd net_329 ProyectoIntegrador__id
Xc_w110 0 b15#0c_w110_a vdd net_309 ProyectoIntegrador__id
Xc_w111 0 net_325 net_338#2c_w111_b vdd net_327#2c_w111_y 
+ProyectoIntegrador__or2
Xc_w112 0 net_322 net_306#2c_w112_b vdd net_325#2c_w112_y 
+ProyectoIntegrador__and2
Xc_w113 0 net_329#2c_w113_a net_309#2c_w113_b vdd net_338 
+ProyectoIntegrador__and2
** Extracted Parasitic Capacitors ***
C0 net_327 0 1.029fF
C1 cout#0c_cout_y 0 0.897fF
C2 net_27 0 0.93fF
C3 sum0#0c_sum0_y 0 0.743fF
C4 net_5 0 0.831fF
C5 sum1#0c_sum1_y 0 0.941fF
C6 net_42 0 1.128fF
C7 sum2#0c_sum2_y 0 0.842fF
C8 net_75#2c_sum3_a 0 1.029fF
C9 sum3#0c_sum3_y 0 1.337fF
C10 net_54#2c_sum4_a 0 0.831fF
C11 sum4#0c_sum4_y 0 0.842fF
C12 net_110#2c_sum5_a 0 1.524fF
C13 sum5#0c_sum5_y 0 1.238fF
C14 net_127 0 0.93fF
C15 sum6#0c_sum6_y 0 0.941fF
C16 net_158 0 1.227fF
C17 sum7#0c_sum7_y 0 1.04fF
C18 net_171#2c_sum8_a 0 1.502fF
C19 sum8#0c_sum8_y 0 0.941fF
C20 net_187#2c_sum9_a 0 0.93fF
C21 sum9#0c_sum9_y 0 1.04fF
C22 net_211#2c_sum10_a 0 1.227fF
C23 sum10#0c_sum10_y 0 0.941fF
C24 net_233 0 0.831fF
C25 sum11#0c_sum11_y 0 1.238fF
C26 net_241 0 0.93fF
C27 sum12#0c_sum12_y 0 1.139fF
C28 net_284 0 1.326fF
C29 sum13#0c_sum13_y 0 1.04fF
C30 net_315#2c_sum14_a 0 1.029fF
C31 sum14#0c_sum14_y 0 0.897fF
C32 net_85#2c_sum15_a 0 1.205fF
C33 sum15#0c_sum15_y 0 0.743fF
C34 net_11 0 0.655fF
C35 net_39 0 1.029fF
C36 net_27#2c_w1_y 0 1.414fF
C37 cin#0c_w2_a 0 1.128fF
C38 net_11#4c_w2_y 0 0.743fF
C39 net_7 0 0.655fF
C40 net_36 0 1.029fF
C41 net_39#4c_w3_y 0 1.513fF
C42 a0#0c_w4_a 0 1.029fF
C43 net_7#4c_w4_y 0 0.743fF
C44 b0#0c_w5_a 0 1.227fF
C45 net_36#4c_w5_y 0 0.941fF
C46 net_22#2c_w6_a 0 0.754fF
C47 net_31 0 1.029fF
C48 net_5#2c_w6_y 0 1.315fF
C49 net_25#2c_w7_a 0 1.194fF
C50 net_48#2c_w7_b 0 1.304fF
C51 net_22 0 0.842fF
C52 net_11#2c_w8_a 0 0.567fF
C53 net_39#2c_w8_b 0 1.029fF
C54 net_25 0 0.842fF
C55 net_7#2c_w9_a 0 0.567fF
C56 net_36#2c_w9_b 0 1.029fF
C57 net_48 0 1.04fF
C58 net_19 0 0.754fF
C59 net_45 0 1.128fF
C60 net_31#4c_w10_y 0 1.513fF
C61 a1#0c_w11_a 0 1.128fF
C62 net_19#4c_w11_y 0 0.842fF
C63 b1#0c_w12_a 0 1.227fF
C64 net_45#4c_w12_y 0 1.04fF
C65 net_15#2c_w13_a 0 0.754fF
C66 net_0 0 0.831fF
C67 net_42#2c_w13_y 0 1.612fF
C68 net_3#2c_w14_a 0 1.095fF
C69 net_29#2c_w14_b 0 1.205fF
C70 net_15 0 0.842fF
C71 net_22#4c_w15_a 0 0.666fF
C72 net_31#2c_w15_b 0 1.029fF
C73 net_3 0 0.743fF
C74 net_19#2c_w16_a 0 0.666fF
C75 net_45#2c_w16_b 0 1.128fF
C76 net_29 0 0.941fF
C77 net_72#2c_w17_a 0 1.48fF
C78 net_96#2c_w17_b 0 1.007fF
C79 net_0#4c_w17_y 0 1.315fF
C80 a2#0c_w18_a 0 1.524fF
C81 net_72 0 0.941fF
C82 b2#0c_w19_a 0 1.227fF
C83 net_96 0 1.238fF
C84 net_65#2c_w20_a 0 0.754fF
C85 net_90#4c_w20_b 0 1.227fF
C86 net_75 0 1.513fF
C87 net_88 0 1.491fF
C88 net_63 0 1.106fF
C89 net_65#4c_w21_y 0 0.842fF
C90 net_15#4c_w22_a 0 0.666fF
C91 net_0#2c_w22_b 0 0.831fF
C92 net_88#2c_w22_y 0 1.194fF
C93 net_72#4c_w23_a 0 0.765fF
C94 net_96#4c_w23_b 0 1.326fF
C95 net_63#2c_w23_y 0 0.842fF
C96 net_68#4c_w24_a 0 0.754fF
C97 net_99#4c_w24_b 0 1.326fF
C98 net_90 0 1.711fF
C99 a3#0c_w25_a 0 0.831fF
C100 net_68 0 0.842fF
C101 b3#0c_w26_a 0 1.128fF
C102 net_99 0 1.238fF
C103 net_79#2c_w27_a 0 0.853fF
C104 net_56#4c_w27_b 0 0.831fF
C105 net_54 0 1.315fF
C106 net_77 0 1.293fF
C107 net_93 0 1.403fF
C108 net_79#4c_w28_y 0 0.941fF
C109 net_65 0 0.666fF
C110 net_90#2c_w29_b 0 1.227fF
C111 net_77#2c_w29_y 0 0.941fF
C112 net_68#2c_w30_a 0 0.666fF
C113 net_99#2c_w30_b 0 1.326fF
C114 net_93#2c_w30_y 0 1.139fF
C115 net_102#4c_w31_a 0 1.15fF
C116 net_59#4c_w31_b 0 0.831fF
C117 net_56 0 1.315fF
C118 a4#0c_w32_a 0 0.831fF
C119 net_102 0 1.238fF
C120 b4#0c_w33_a 0 1.227fF
C121 net_59 0 0.743fF
C122 net_132#2c_w34_a 0 1.48fF
C123 net_118#2c_w34_b 0 1.403fF
C124 net_110 0 2.008fF
C125 net_82 0 1.293fF
C126 net_107 0 1.601fF
C127 net_132#4c_w35_y 0 1.392fF
C128 net_79 0 0.765fF
C129 net_56#2c_w36_b 0 0.831fF
C130 net_82#2c_w36_y 0 0.941fF
C131 net_102#2c_w37_a 0 1.062fF
C132 net_59#2c_w37_b 0 0.831fF
C133 net_107#2c_w37_y 0 1.337fF
C134 net_168 0 1.249fF
C135 net_129 0 0.93fF
C136 net_118#4c_w38_y 0 1.315fF
C137 a5#0c_w39_a 0 1.227fF
C138 net_168#4c_w39_y 0 1.337fF
C139 b5#0c_w40_a 0 1.326fF
C140 net_129#4c_w40_y 0 0.842fF
C141 net_144#2c_w41_a 0 0.853fF
C142 net_113 0 0.831fF
C143 net_127#2c_w41_y 0 1.414fF
C144 net_152#2c_w42_a 0 1.392fF
C145 net_116#2c_w42_b 0 1.007fF
C146 net_144 0 0.941fF
C147 net_132 0 0.666fF
C148 net_118 0 0.831fF
C149 net_152 0 1.04fF
C150 net_168#2c_w44_a 0 1.161fF
C151 net_129#2c_w44_b 0 0.93fF
C152 net_116 0 0.743fF
C153 net_149 0 0.952fF
C154 net_124 0 0.93fF
C155 net_113#4c_w45_y 0 1.315fF
C156 a6#0c_w46_a 0 0.93fF
C157 net_149#4c_w46_y 0 1.04fF
C158 b6#0c_w47_a 0 0.831fF
C159 net_124#4c_w47_y 0 0.842fF
C160 net_139#2c_w48_a 0 0.853fF
C161 net_155 0 1.227fF
C162 net_158#2c_w48_y 0 1.711fF
C163 net_142#2c_w49_a 0 1.293fF
C164 net_165#2c_w49_b 0 1.502fF
C165 net_139 0 0.941fF
C166 net_144#4c_w50_a 0 0.765fF
C167 net_113#2c_w50_b 0 0.831fF
C168 net_142 0 0.941fF
C169 net_149#2c_w51_a 0 0.864fF
C170 net_124#2c_w51_b 0 0.93fF
C171 net_165 0 1.238fF
C172 net_136 0 0.853fF
C173 net_162 0 1.326fF
C174 net_155#4c_w52_y 0 1.711fF
C175 a7#0c_w53_a 0 1.326fF
C176 net_136#4c_w53_y 0 0.941fF
C177 b7#0c_w54_a 0 1.227fF
C178 net_162#4c_w54_y 0 1.238fF
C179 net_219#2c_w55_a 0 1.249fF
C180 net_173#4c_w55_b 0 0.831fF
C181 net_171 0 1.315fF
C182 net_193#2c_w56_a 0 1.293fF
C183 net_182#2c_w56_b 0 1.106fF
C184 net_219#4c_w56_y 0 1.337fF
C185 net_139#4c_w57_a 0 0.765fF
C186 net_155#2c_w57_b 0 1.227fF
C187 net_193 0 1.392fF
C188 net_136#2c_w58_a 0 0.765fF
C189 net_162#2c_w58_b 0 1.326fF
C190 net_182 0 1.491fF
C191 net_224#4c_w59_a 0 1.348fF
C192 net_184#4c_w59_b 0 0.93fF
C193 net_173 0 1.315fF
C194 a8#0c_w60_a 0 1.227fF
C195 net_224 0 1.436fF
C196 b8#0c_w61_a 0 1.326fF
C197 net_184 0 0.842fF
C198 net_195#2c_w62_a 0 0.853fF
C199 net_178#4c_w62_b 0 0.831fF
C200 net_187 0 1.414fF
C201 net_222 0 1.689fF
C202 net_176 0 1.007fF
C203 net_195#4c_w63_y 0 0.941fF
C204 net_219 0 1.161fF
C205 net_173#2c_w64_b 0 0.831fF
C206 net_222#2c_w64_y 0 1.337fF
C207 net_224#2c_w65_a 0 1.26fF
C208 net_184#2c_w65_b 0 0.93fF
C209 net_176#2c_w65_y 0 0.743fF
C210 net_198#4c_w66_a 0 0.853fF
C211 net_189#4c_w66_b 0 0.93fF
C212 net_178 0 1.315fF
C213 a9#0c_w67_a 0 0.93fF
C214 net_198 0 0.941fF
C215 b9#0c_w68_a 0 0.831fF
C216 net_189 0 0.842fF
C217 net_216#2c_w69_a 0 1.15fF
C218 net_205#4c_w69_b 0 1.128fF
C219 net_211 0 1.711fF
C220 net_203 0 1.392fF
C221 net_214 0 1.502fF
C222 net_216#4c_w70_y 0 1.238fF
C223 net_195 0 0.765fF
C224 net_178#2c_w71_b 0 0.831fF
C225 net_203#2c_w71_y 0 1.04fF
C226 net_198#2c_w72_a 0 0.765fF
C227 net_189#2c_w72_b 0 0.93fF
C228 net_214#2c_w72_y 0 1.238fF
C229 net_251#4c_w73_a 0 1.579fF
C230 net_267#4c_w73_b 0 1.304fF
C231 net_205 0 1.612fF
C232 a10#0c_w74_a 0 0.831fF
C233 net_251#2c_w74_y 0 0.842fF
C234 b10#0c_w75_a 0 0.93fF
C235 net_267 0 0.941fF
C236 net_246#2c_w76_a 0 0.754fF
C237 net_264 0 1.029fF
C238 net_233#2c_w76_y 0 1.315fF
C239 net_249#2c_w77_a 0 1.194fF
C240 net_279#2c_w77_b 0 1.304fF
C241 net_246 0 0.842fF
C242 net_216 0 1.062fF
C243 net_205#2c_w78_b 0 1.128fF
C244 net_249 0 1.491fF
C245 net_251 0 1.667fF
C246 net_267#2c_w79_b 0 1.304fF
C247 net_279 0 1.293fF
C248 net_243 0 0.754fF
C249 net_276 0 1.128fF
C250 net_264#4c_w80_y 0 1.513fF
C251 a11#0c_w81_a 0 1.524fF
C252 net_243#4c_w81_y 0 0.842fF
C253 b11#0c_w82_a 0 1.425fF
C254 net_276#4c_w82_y 0 1.04fF
C255 net_259#2c_w83_a 0 0.853fF
C256 net_228 0 0.831fF
C257 net_241#2c_w83_y 0 1.414fF
C258 net_231#2c_w84_a 0 1.095fF
C259 net_262#2c_w84_b 0 1.205fF