*** SPICE deck for cell rippleCarry32;6{lay} from library ProyectoIntegrador
*** Created on mar sep 02, 2014 22:27:01
*** Last revised on mar sep 02, 2014 22:28:17
*** Written on lun oct 06, 2014 23:55:20 by Electric VLSI Design System, 
*** version 9.05
*** Layout tech: mocmos, foundry MOSIS
*** UC SPICE *** , MIN_RESIST 0.5, MIN_CAPAC 0.5FF
***    P-Active:	areacap=1.167FF/um^2,	edgecap=0.203FF/um,	res=7.5ohms/sq
***    N-Active:	areacap=0.982FF/um^2,	edgecap=0.244FF/um,	res=6.7ohms/sq
***    
*** Polysilicon-1:	areacap=0.1467FF/um^2,	edgecap=0.0608FF/um,	res=7.8ohms/sq
***    Transistor-Poly:	areacap=0.09FF/um^2,	edgecap=0.0FF/um,	res=2.5ohms/sq
***    Poly-Cut:	areacap=0.0FF/um^2,	edgecap=0.0FF/um,	res=10.5ohms/sq
***    Active-Cut:	areacap=0.0FF/um^2,	edgecap=0.0FF/um,	res=12.2ohms/sq
***    Metal-1:	areacap=0.1209FF/um^2,	edgecap=0.1104FF/um,	res=0.08ohms/sq
***    Via1:	areacap=0.0FF/um^2,	edgecap=0.0FF/um,	res=5.69ohms/sq
***    Metal-2:	areacap=0.0843FF/um^2,	edgecap=0.0974FF/um,	res=0.08ohms/sq
***    Via2:	areacap=0.0FF/um^2,	edgecap=0.0FF/um,	res=11.39ohms/sq
***    Metal-3:	areacap=0.0843FF/um^2,	edgecap=0.0974FF/um,	res=0.08ohms/sq
***    Via3:	areacap=0.0FF/um^2,	edgecap=0.0FF/um,	res=16.73ohms/sq
***    Metal-4:	areacap=0.0843FF/um^2,	edgecap=0.0974FF/um,	res=0.08ohms/sq
***    Via4:	areacap=0.0FF/um^2,	edgecap=0.0FF/um,	res=21.44ohms/sq
***    Metal-5:	areacap=0.0843FF/um^2,	edgecap=0.0974FF/um,	res=0.07ohms/sq
***    Via5:	areacap=0.0FF/um^2,	edgecap=0.0FF/um,	res=24.08ohms/sq
***    Metal-6:	areacap=0.0423FF/um^2,	edgecap=0.1273FF/um,	res=0.03ohms/sq
***    Hi-Res:	areacap=0.0FF/um^2,	edgecap=0.0FF/um,	res=1.0ohms/sq
* Model cards are described in this file:
.include /home/lean/tfinal/trabajo/models/tsmc180nm.model

*** SUBCIRCUIT ProyectoIntegrador__id FROM CELL id{lay}
.SUBCKT ProyectoIntegrador__id vss a vdd y
Mnmos_0 net_10 a#1nmos@0_poly-right 0 0 N L=0.2U W=0.4U AS=0.6P AD=0.3P 
+PS=5.8U PD=2.2U
Mnmos_1 y#0contact@11_metal-1-n-act net_10#6nmos@1_poly-right 0 0 N L=0.2U 
+W=0.4U AS=0.6P AD=0.3P PS=5.8U PD=2.2U
Mpmos_0 net_10#2contact@4_metal-1-p-act a#5pmos@0_poly-left vdd vdd P L=0.2U 
+W=0.8U AS=0.8P AD=0.3P PS=6.6U PD=2.2U
Mpmos_1 y#2contact@12_metal-1-p-act net_10#10pmos@1_poly-left vdd vdd P 
+L=0.2U W=0.8U AS=0.8P AD=0.3P PS=6.6U PD=2.2U
** Extracted Parasitic Capacitors ***
C0 net_10 0 0.649fF
C1 net_10#2contact@4_metal-1-p-act 0 0.623fF
C2 y#0contact@11_metal-1-n-act 0 0.546fF
C3 y#2contact@12_metal-1-p-act 0 0.726fF
C4 net_10#4contact@15_metal-1-metal-2 0 1.495fF
C5 y 0 1.272fF
C6 a#3pin@32_polysilicon-1 0 0.66fF
C7 net_10#8pin@38_polysilicon-1 0 0.66fF
** Extracted Parasitic Resistors ***
R0 a#1nmos@0_poly-right a#2pin@29_polysilicon-1 15.6
R1 a#3pin@32_polysilicon-1 a#2pin@29_polysilicon-1 181.35
R2 a#4pin@31_polysilicon-1 a#3pin@32_polysilicon-1 157.95
R3 a a#3pin@32_polysilicon-1 1.95
R4 a#5pmos@0_poly-left a#4pin@31_polysilicon-1 15.6
R5 net_10#6nmos@1_poly-right net_10#7pin@36_polysilicon-1 15.6
R6 net_10#8pin@38_polysilicon-1 net_10#7pin@36_polysilicon-1 181.35
R7 net_10#9pin@37_polysilicon-1 net_10#8pin@38_polysilicon-1 157.95
R8 net_10#4contact@15_metal-1-metal-2 net_10#8pin@38_polysilicon-1 1.95
R9 net_10#10pmos@1_poly-left net_10#9pin@37_polysilicon-1 15.6
R10 y#2contact@12_metal-1-p-act y 1.507
R11 net_10#2contact@4_metal-1-p-act net_10#4contact@15_metal-1-metal-2 1.293
R12 net_10#4contact@15_metal-1-metal-2 net_10 1.347
R13 y#0contact@11_metal-1-n-act y 1.133
.ENDS ProyectoIntegrador__id

*** SUBCIRCUIT ProyectoIntegrador__xor2 FROM CELL xor2{lay}
.SUBCKT ProyectoIntegrador__xor2 vss a b vdd y
Mnmos_0 net_79 a#9nmos@0_poly-right 0 0 N L=0.2U W=0.4U AS=0.44P AD=0.088P 
+PS=4.2U PD=0.85U
Mnmos_1 net_76 net_160#11nmos@1_poly-right y#0contact@4_metal-1-n-act 0 N 
+L=0.2U W=0.4U AS=0.12P AD=0.088P PS=1U PD=0.85U
Mnmos_2 0 net_270#10nmos@2_poly-right net_76 0 N L=0.2U W=0.4U AS=0.088P 
+AD=0.44P PS=0.85U PD=4.2U
Mnmos_3 y#0contact@4_metal-1-n-act b#5nmos@3_poly-right net_79 0 N L=0.2U 
+W=0.4U AS=0.088P AD=0.12P PS=0.85U PD=1U
Mnmos_4 net_160#12contact@20_metal-1-n-act b#0nmos@4_poly-right 0 0 N L=0.2U 
+W=0.4U AS=0.44P AD=0.2P PS=4.2U PD=1.8U
Mnmos_5 0 a#5nmos@5_poly-right net_270#2contact@38_metal-1-metal-2 0 N L=0.2U 
+W=0.4U AS=0.2P AD=0.44P PS=1.8U PD=4.2U
Mpmos_0 net_68 net_270#12pmos@0_poly-left vdd vdd P L=0.2U W=0.4U AS=0.44P 
+AD=0.088P PS=4.2U PD=0.85U
Mpmos_1 y b#11pmos@1_poly-left net_68 vdd P L=0.2U W=0.4U AS=0.088P AD=0.12P 
+PS=0.85U PD=1U
Mpmos_2 net_70 net_160#5pmos@2_poly-left y vdd P L=0.2U W=0.4U AS=0.12P 
+AD=0.088P PS=1U PD=0.85U
Mpmos_4 vdd a#12pmos@4_poly-left net_70 vdd P L=0.2U W=0.4U AS=0.088P 
+AD=0.44P PS=0.85U PD=4.2U
Mpmos_5 vdd a#1pmos@5_poly-left net_270 vdd P L=0.2U W=0.4U AS=0.2P AD=0.44P 
+PS=1.8U PD=4.2U
Mpmos_6 net_160 b#13pmos@6_poly-left vdd vdd P L=0.2U W=0.4U AS=0.44P AD=0.2P 
+PS=4.2U PD=1.8U
** Extracted Parasitic Capacitors ***
C0 y#0contact@4_metal-1-n-act 0 1.163fF
C1 y 0 1.163fF
C2 a#0contact@12_metal-1-polysilicon-1 0 0.628fF
C3 net_160#12contact@20_metal-1-n-act 0 0.594fF
C4 net_160 0 0.708fF
C5 a 0 1.289fF
C6 b 0 0.563fF
C7 net_270 0 1.519fF
C8 net_270#1contact@39_metal-1-metal-2 0 1.247fF
C9 net_160#2contact@45_metal-1-metal-2 0 1.373fF
C10 net_270#4contact@49_metal-1-polysilicon-1 0 0.653fF
C11 b#2pin@88_polysilicon-1 0 0.691fF
C12 b#8pin@112_polysilicon-1 0 0.509fF
** Extracted Parasitic Resistors ***
R0 y y#0contact@4_metal-1-n-act 2.413
R1 a#0contact@12_metal-1-polysilicon-1 a 0.76
R2 a#1pmos@5_poly-left a#2pin@74_polysilicon-1 15.6
R3 a#2pin@74_polysilicon-1 a#2pin@74_polysilicon-1##0 118.95
R4 a#2pin@74_polysilicon-1##0 a 118.95
R5 a#4pin@75_polysilicon-1 a#5nmos@5_poly-right 15.6
R6 a a#4pin@75_polysilicon-1 117
R7 b#0nmos@4_poly-right b#1pin@77_polysilicon-1 31.2
R8 b#1pin@77_polysilicon-1 b#2pin@88_polysilicon-1 183.3
R9 b#2pin@88_polysilicon-1 b#4pin@126_polysilicon-1 171.6
R10 b b#2pin@88_polysilicon-1 1.95
R11 net_270 net_270#1contact@39_metal-1-metal-2 1.107
R12 net_270#1contact@39_metal-1-metal-2 net_270#2contact@38_metal-1-metal-2 
+0.653
R13 net_160#2contact@45_metal-1-metal-2 net_160 1.467
R14 net_160#2contact@45_metal-1-metal-2 
+net_160#4contact@44_metal-1-polysilicon-1 0.6
R15 net_270#3pin@117_polysilicon-1 net_270#4contact@49_metal-1-polysilicon-1 
+68.25
R16 net_270#7pin@101_polysilicon-1 net_270 1.95
R17 net_270#1contact@39_metal-1-metal-2 
+net_270#4contact@49_metal-1-polysilicon-1 1.08
R18 a#0contact@12_metal-1-polysilicon-1 
+a#0contact@12_metal-1-polysilicon-1##0 101.4
R19 a#0contact@12_metal-1-polysilicon-1##0 a#8pin@128_polysilicon-1 101.4
R20 b#5nmos@3_poly-right b#6pin@104_polysilicon-1 39
R21 b#6pin@104_polysilicon-1 b#7pin@105_polysilicon-1 7.8
R22 b#7pin@105_polysilicon-1 b#8pin@112_polysilicon-1 142.35
R23 b#9pin@106_polysilicon-1 b#10pin@107_polysilicon-1 7.8
R24 b#10pin@107_polysilicon-1 b#11pmos@1_poly-left 54.6
R25 net_160#5pmos@2_poly-left net_160#6pin@108_polysilicon-1 74.1
R26 net_160#6pin@108_polysilicon-1 net_160#7pin@109_polysilicon-1 7.8
R27 net_160#7pin@109_polysilicon-1 net_160#8pin@113_polysilicon-1 130.65
R28 net_160#9pin@110_polysilicon-1 net_160#10pin@111_polysilicon-1 7.8
R29 net_160#10pin@111_polysilicon-1 net_160#11nmos@1_poly-right 58.5
R30 b b#12contact@48_metal-1-polysilicon-1 0.547
R31 b#8pin@112_polysilicon-1 b#9pin@106_polysilicon-1 118.95
R32 b#12contact@48_metal-1-polysilicon-1 b#8pin@112_polysilicon-1 1.95
R33 net_160#8pin@113_polysilicon-1 net_160#9pin@110_polysilicon-1 91.65
R34 net_160#4contact@44_metal-1-polysilicon-1 net_160#8pin@113_polysilicon-1 
+1.95
R35 net_160#12contact@20_metal-1-n-act net_160#2contact@45_metal-1-metal-2 
+1.16
R36 net_270#10nmos@2_poly-right net_270#11pin@116_polysilicon-1 19.5
R37 net_270#11pin@116_polysilicon-1 net_270#3pin@117_polysilicon-1 31.2
R38 a#9nmos@0_poly-right a#10pin@121_polysilicon-1 19.5
R39 a#10pin@121_polysilicon-1 a#11pin@122_polysilicon-1 15.6
R40 a#11pin@122_polysilicon-1 a 101.4
R41 net_270#12pmos@0_poly-left net_270#13pin@123_polysilicon-1 35.1
R42 net_270#13pin@123_polysilicon-1 net_270#14pin@124_polysilicon-1 15.6
R43 net_270#14pin@124_polysilicon-1 net_270 76.05
R44 a#12pmos@4_poly-left a#13pin@127_polysilicon-1 35.1
R45 a#13pin@127_polysilicon-1 a#8pin@128_polysilicon-1 15.6
R46 b#13pmos@6_poly-left b#4pin@126_polysilicon-1 31.2
.ENDS ProyectoIntegrador__xor2

*** SUBCIRCUIT ProyectoIntegrador__or2 FROM CELL or2{lay}
.SUBCKT ProyectoIntegrador__or2 vss a b vdd y
Mnmos_0 net_56#2contact@3_metal-1-n-act a#1nmos@0_poly-right 0 0 N L=0.2U 
+W=0.4U AS=0.52P AD=0.147P PS=5U PD=1.267U
Mnmos_1 0 b#3nmos@1_poly-right net_56#2contact@3_metal-1-n-act 0 N L=0.2U 
+W=0.4U AS=0.147P AD=0.52P PS=1.267U PD=5U
Mnmos_2 y#0contact@12_metal-1-n-act net_56#9nmos@2_poly-right 0 0 N L=0.2U 
+W=0.4U AS=0.52P AD=0.3P PS=5U PD=2.2U
Mpmos_0 net_55 a#3pmos@0_poly-left vdd vdd P L=0.2U W=0.4U AS=0.78P AD=0.088P 
+PS=7U PD=0.85U
Mpmos_1 net_56 b#1pmos@1_poly-left net_55 vdd P L=0.2U W=0.4U AS=0.088P 
+AD=0.147P PS=0.85U PD=1.267U
Mpmos_2 y#2contact@13_metal-1-p-act net_56#14pmos@2_poly-left vdd vdd P 
+L=0.2U W=0.8U AS=0.78P AD=0.3P PS=7U PD=2.2U
** Extracted Parasitic Capacitors ***
C0 net_56 0 0.688fF
C1 y#0contact@12_metal-1-n-act 0 0.546fF
C2 y#2contact@13_metal-1-p-act 0 0.726fF
C3 net_56#13contact@14_metal-1-polysilicon-1 0 1.116fF
C4 y 0 1.272fF
C5 a#5pin@19_polysilicon-1 0 0.513fF
C6 net_56#6pin@24_metal-1 0 0.848fF
C7 net_56#11pin@32_polysilicon-1 0 0.66fF
** Extracted Parasitic Resistors ***
R0 a#1nmos@0_poly-right a#2pin@13_polysilicon-1 15.6
R1 a#3pmos@0_poly-left a#4pin@14_polysilicon-1 15.6
R2 a#4pin@14_polysilicon-1 a#5pin@19_polysilicon-1 79.95
R3 b#1pmos@1_poly-left b#2pin@15_polysilicon-1 19.5
R4 b#3nmos@1_poly-right b#4pin@16_polysilicon-1 19.5
R5 b#2pin@15_polysilicon-1 b#5pin@17_polysilicon-1 7.8
R6 b#5pin@17_polysilicon-1 b#6pin@20_polysilicon-1 89.7
R7 b#7pin@18_polysilicon-1 b#4pin@16_polysilicon-1 15.6
R8 a#5pin@19_polysilicon-1 a#5pin@19_polysilicon-1##0 137.475
R9 a#5pin@19_polysilicon-1##0 a#2pin@13_polysilicon-1 137.475
R10 a#5pin@19_polysilicon-1 a 1.95
R11 b#6pin@20_polysilicon-1 b#6pin@20_polysilicon-1##0 113.1
R12 b#6pin@20_polysilicon-1##0 b#7pin@18_polysilicon-1 113.1
R13 b#6pin@20_polysilicon-1 b 1.95
R14 net_56#2contact@3_metal-1-n-act net_56#6pin@24_metal-1 0.693
R15 net_56#9nmos@2_poly-right net_56#10pin@30_polysilicon-1 15.6
R16 net_56#11pin@32_polysilicon-1 net_56#10pin@30_polysilicon-1 181.35
R17 net_56#12pin@31_polysilicon-1 net_56#11pin@32_polysilicon-1 157.95
R18 net_56#13contact@14_metal-1-polysilicon-1 net_56#11pin@32_polysilicon-1 
+1.95
R19 y#2contact@13_metal-1-p-act y 1.507
R20 y y#0contact@12_metal-1-n-act 1.133
R21 net_56#14pmos@2_poly-left net_56#12pin@31_polysilicon-1 15.6
R22 net_56#6pin@24_metal-1 net_56#13contact@14_metal-1-polysilicon-1 0.64
R23 net_56#13contact@14_metal-1-polysilicon-1 net_56 1.293
.ENDS ProyectoIntegrador__or2

*** SUBCIRCUIT ProyectoIntegrador__and2 FROM CELL and2{lay}
.SUBCKT ProyectoIntegrador__and2 vss a b vdd y
Mnmos_0 net_121 b#7nmos@0_poly-right net_149 0 N L=0.2U W=0.4U AS=0.088P 
+AD=0.147P PS=0.85U PD=1.267U
Mnmos_1 net_149 a#5nmos@1_poly-right 0 0 N L=0.2U W=0.4U AS=0.68P AD=0.088P 
+PS=6.6U PD=0.85U
Mnmos_2 y#0contact@13_metal-1-n-act net_121#13nmos@2_poly-right 0 0 N L=0.2U 
+W=0.4U AS=0.68P AD=0.3P PS=6.6U PD=2.2U
Mpmos_0 vdd b#1pmos@0_poly-left net_121#2contact@2_metal-1-p-act vdd P L=0.2U 
+W=0.4U AS=0.147P AD=0.587P PS=1.267U PD=5.267U
Mpmos_1 net_121#2contact@2_metal-1-p-act a#1pmos@1_poly-left vdd vdd P L=0.2U 
+W=0.4U AS=0.587P AD=0.147P PS=5.267U PD=1.267U
Mpmos_2 y#2contact@14_metal-1-p-act net_121#7pmos@2_poly-left vdd vdd P 
+L=0.2U W=0.8U AS=0.587P AD=0.3P PS=5.267U PD=2.2U
** Extracted Parasitic Capacitors ***
C0 net_121 0 0.797fF
C1 net_121#2contact@2_metal-1-p-act 0 0.514fF
C2 y#0contact@13_metal-1-n-act 0 0.546fF
C3 y#2contact@14_metal-1-p-act 0 0.726fF
C4 y 0 1.272fF
C5 net_121#3pin@35_metal-1 0 2.19fF
C6 b#4pin@29_polysilicon-1 0 0.615fF
C7 a#3pin@33_polysilicon-1 0 0.518fF
** Extracted Parasitic Resistors ***
R0 a#1pmos@1_poly-left a#2pin@22_polysilicon-1 15.6
R1 a#2pin@22_polysilicon-1 a#2pin@22_polysilicon-1##0 133.575
R2 a#2pin@22_polysilicon-1##0 a#3pin@33_polysilicon-1 133.575
R3 b#1pmos@0_poly-left b#2pin@25_polysilicon-1 19.5
R4 b#2pin@25_polysilicon-1 b#3pin@26_polysilicon-1 15.6
R5 b#3pin@26_polysilicon-1 b#4pin@29_polysilicon-1 156
R6 b#5pin@27_polysilicon-1 b#6pin@28_polysilicon-1 7.8
R7 b#6pin@28_polysilicon-1 b#7nmos@0_poly-right 19.5
R8 b#4pin@29_polysilicon-1 b#5pin@27_polysilicon-1 159.9
R9 b b#4pin@29_polysilicon-1 1.95
R10 a#3pin@33_polysilicon-1 a#4pin@23_polysilicon-1 87.75
R11 a#3pin@33_polysilicon-1 a 1.95
R12 a#4pin@23_polysilicon-1 a#5nmos@1_poly-right 15.6
R13 net_121#2contact@2_metal-1-p-act net_121#3pin@35_metal-1 1.067
R14 y#2contact@14_metal-1-p-act y 1.507
R15 y y#0contact@13_metal-1-n-act 1.133
R16 net_121#7pmos@2_poly-left net_121#8pin@40_polysilicon-1 15.6
R17 net_121#3pin@35_metal-1 net_121 1.547
R18 net_121#11pin@39_polysilicon-1 net_121#11pin@39_polysilicon-1##0 106.275
R19 net_121#11pin@39_polysilicon-1##0 net_121#3pin@35_metal-1 106.275
R20 net_121#3pin@35_metal-1 net_121#8pin@40_polysilicon-1 126.75
R21 net_121#11pin@39_polysilicon-1 net_121#13nmos@2_poly-right 15.6
.ENDS ProyectoIntegrador__and2

*** TOP LEVEL CELL: rippleCarry32;6{lay}
Xc_cout 0 net_662 vdd cout#0c_cout_y ProyectoIntegrador__id
Xc_sum0 0 net_51 vdd sum0#0c_sum0_y ProyectoIntegrador__id
Xc_sum1 0 net_17 vdd sum1#0c_sum1_y ProyectoIntegrador__id
Xc_sum2 0 net_41 vdd sum2#0c_sum2_y ProyectoIntegrador__id
Xc_sum3 0 net_36 vdd sum3#0c_sum3_y ProyectoIntegrador__id
Xc_sum4 0 net_31 vdd sum4#0c_sum4_y ProyectoIntegrador__id
Xc_sum5 0 net_138 vdd sum5#0c_sum5_y ProyectoIntegrador__id
Xc_sum6 0 net_143#2c_sum6_a vdd sum6#0c_sum6_y ProyectoIntegrador__id
Xc_sum7 0 net_148#2c_sum7_a vdd sum7#0c_sum7_y ProyectoIntegrador__id
Xc_sum8 0 net_109#2c_sum8_a vdd sum8#0c_sum8_y ProyectoIntegrador__id
Xc_sum9 0 net_182#2c_sum9_a vdd sum9#0c_sum9_y ProyectoIntegrador__id
Xc_sum10 0 net_210#2c_sum10_a vdd sum10#0c_sum10_y ProyectoIntegrador__id
Xc_sum11 0 net_234 vdd sum11#0c_sum11_y ProyectoIntegrador__id
Xc_sum12 0 net_250 vdd sum12#0c_sum12_y ProyectoIntegrador__id
Xc_sum13 0 net_245 vdd sum13#0c_sum13_y ProyectoIntegrador__id
Xc_sum14 0 net_305 vdd sum14#0c_sum14_y ProyectoIntegrador__id
Xc_sum15 0 net_314 vdd sum15#0c_sum15_y ProyectoIntegrador__id
Xc_sum16 0 net_338#2c_sum16_a vdd sum16#0c_sum16_y ProyectoIntegrador__id
Xc_sum17 0 net_373#2c_sum17_a vdd sum17#0c_sum17_y ProyectoIntegrador__id
Xc_sum18 0 net_362#2c_sum18_a vdd sum18#0c_sum18_y ProyectoIntegrador__id
Xc_sum19 0 net_413#2c_sum19_a vdd sum19#0c_sum19_y ProyectoIntegrador__id
Xc_sum20 0 net_436#2c_sum20_a vdd sum20#0c_sum20_y ProyectoIntegrador__id
Xc_sum21 0 net_428#2c_sum21_a vdd sum21#0c_sum21_y ProyectoIntegrador__id
Xc_sum22 0 net_487 vdd sum22#0c_sum22_y ProyectoIntegrador__id
Xc_sum23 0 net_482 vdd sum23#0c_sum23_y ProyectoIntegrador__id
Xc_sum24 0 net_477 vdd sum24#0c_sum24_y ProyectoIntegrador__id
Xc_sum25 0 net_529 vdd sum25#0c_sum25_y ProyectoIntegrador__id
Xc_sum26 0 net_543 vdd sum26#0c_sum26_y ProyectoIntegrador__id
Xc_sum27 0 net_568#2c_sum27_a vdd sum27#0c_sum27_y ProyectoIntegrador__id
Xc_sum28 0 net_600#2c_sum28_a vdd sum28#0c_sum28_y ProyectoIntegrador__id
Xc_sum29 0 net_605#2c_sum29_a vdd sum29#0c_sum29_y ProyectoIntegrador__id
Xc_sum30 0 net_610#2c_sum30_a vdd sum30#0c_sum30_y ProyectoIntegrador__id
Xc_sum31 0 net_187#2c_sum31_a vdd sum31#0c_sum31_y ProyectoIntegrador__id
Xc_w1 0 net_23 net_78 vdd net_51#2c_w1_y ProyectoIntegrador__xor2
Xc_w2 0 cin#0c_w2_a vdd net_23#4c_w2_y ProyectoIntegrador__id
Xc_w3 0 net_19 net_99 vdd net_78#4c_w3_y ProyectoIntegrador__xor2
Xc_w4 0 a0#0c_w4_a vdd net_19#4c_w4_y ProyectoIntegrador__id
Xc_w5 0 b0#0c_w5_a vdd net_99#4c_w5_y ProyectoIntegrador__id
Xc_w6 0 net_46#2c_w6_a net_73 vdd net_17#2c_w6_y ProyectoIntegrador__xor2
Xc_w7 0 net_49#2c_w7_a net_76#2c_w7_b vdd net_46 ProyectoIntegrador__or2
Xc_w8 0 net_23#2c_w8_a net_78#2c_w8_b vdd net_49 ProyectoIntegrador__and2
Xc_w9 0 net_19#2c_w9_a net_99#2c_w9_b vdd net_76 ProyectoIntegrador__and2
Xc_w10 0 net_43 net_94 vdd net_73#4c_w10_y ProyectoIntegrador__xor2
Xc_w11 0 a1#0c_w11_a vdd net_43#4c_w11_y ProyectoIntegrador__id
Xc_w12 0 b1#0c_w12_a vdd net_94#4c_w12_y ProyectoIntegrador__id
Xc_w13 0 net_12#2c_w13_a net_68 vdd net_41#2c_w13_y ProyectoIntegrador__xor2
Xc_w14 0 net_15#2c_w14_a net_71#2c_w14_b vdd net_12 ProyectoIntegrador__or2
Xc_w15 0 net_46#4c_w15_a net_73#2c_w15_b vdd net_15 ProyectoIntegrador__and2
Xc_w16 0 net_43#2c_w16_a net_94#2c_w16_b vdd net_71 ProyectoIntegrador__and2
Xc_w17 0 net_38 net_89 vdd net_68#4c_w17_y ProyectoIntegrador__xor2
Xc_w18 0 a2#0c_w18_a vdd net_38#4c_w18_y ProyectoIntegrador__id
Xc_w19 0 b2#0c_w19_a vdd net_89#4c_w19_y ProyectoIntegrador__id
Xc_w20 0 net_7#2c_w20_a net_63 vdd net_36#2c_w20_y ProyectoIntegrador__xor2
Xc_w21 0 net_10#2c_w21_a net_66#2c_w21_b vdd net_7 ProyectoIntegrador__or2
Xc_w22 0 net_12#4c_w22_a net_68#2c_w22_b vdd net_10 ProyectoIntegrador__and2
Xc_w23 0 net_38#2c_w23_a net_89#2c_w23_b vdd net_66 ProyectoIntegrador__and2
Xc_w24 0 net_33 net_60 vdd net_63#4c_w24_y ProyectoIntegrador__xor2
Xc_w25 0 a3#0c_w25_a vdd net_33#4c_w25_y ProyectoIntegrador__id
Xc_w26 0 b3#0c_w26_a vdd net_60#4c_w26_y ProyectoIntegrador__id
Xc_w27 0 net_2#2c_w27_a net_55 vdd net_31#2c_w27_y ProyectoIntegrador__xor2
Xc_w28 0 net_5#2c_w28_a net_85#2c_w28_b vdd net_2 ProyectoIntegrador__or2
Xc_w29 0 net_7#4c_w29_a net_63#2c_w29_b vdd net_5 ProyectoIntegrador__and2
Xc_w30 0 net_33#2c_w30_a net_60#2c_w30_b vdd net_85 ProyectoIntegrador__and2
Xc_w31 0 net_28 net_82 vdd net_55#4c_w31_y ProyectoIntegrador__xor2
Xc_w32 0 a4#0c_w32_a vdd net_28#4c_w32_y ProyectoIntegrador__id
Xc_w33 0 b4#0c_w33_a vdd net_82#4c_w33_y ProyectoIntegrador__id
Xc_w34 0 net_156#4c_w34_a net_121#4c_w34_b vdd net_138#2c_w34_y 
+ProyectoIntegrador__xor2
Xc_w35 0 net_0#2c_w35_a net_53#2c_w35_b vdd net_156 ProyectoIntegrador__or2
Xc_w36 0 net_2#4c_w36_a net_55#2c_w36_b vdd net_0 ProyectoIntegrador__and2
Xc_w37 0 net_28#2c_w37_a net_82#2c_w37_b vdd net_53 ProyectoIntegrador__and2
Xc_w38 0 net_220#4c_w38_a net_140#4c_w38_b vdd net_121 
+ProyectoIntegrador__xor2
Xc_w39 0 a5#0c_w39_a vdd net_220 ProyectoIntegrador__id
Xc_w40 0 b5#0c_w40_a vdd net_140 ProyectoIntegrador__id
Xc_w41 0 net_126#2c_w41_a net_161#4c_w41_b vdd net_143 
+ProyectoIntegrador__xor2
Xc_w42 0 net_159 net_124 vdd net_126#4c_w42_y ProyectoIntegrador__or2
Xc_w43 0 net_156#2c_w43_a net_121#2c_w43_b vdd net_159#2c_w43_y 
+ProyectoIntegrador__and2
Xc_w44 0 net_220#2c_w44_a net_140#2c_w44_b vdd net_124#2c_w44_y 
+ProyectoIntegrador__and2
Xc_w45 0 net_145#4c_w45_a net_205#4c_w45_b vdd net_161 
+ProyectoIntegrador__xor2
Xc_w46 0 a6#0c_w46_a vdd net_145 ProyectoIntegrador__id
Xc_w47 0 b6#0c_w47_a vdd net_205 ProyectoIntegrador__id
Xc_w48 0 net_131#2c_w48_a net_166#4c_w48_b vdd net_148 
+ProyectoIntegrador__xor2
Xc_w49 0 net_129 net_164 vdd net_131#4c_w49_y ProyectoIntegrador__or2
Xc_w50 0 net_126 net_161#2c_w50_b vdd net_129#2c_w50_y 
+ProyectoIntegrador__and2
Xc_w51 0 net_145#2c_w51_a net_205#2c_w51_b vdd net_164#2c_w51_y 
+ProyectoIntegrador__and2
Xc_w52 0 net_134#4c_w52_a net_190#4c_w52_b vdd net_166 
+ProyectoIntegrador__xor2
Xc_w53 0 a7#0c_w53_a vdd net_134 ProyectoIntegrador__id
Xc_w54 0 b7#0c_w54_a vdd net_190 ProyectoIntegrador__id
Xc_w55 0 net_171#2c_w55_a net_152#4c_w55_b vdd net_109 
+ProyectoIntegrador__xor2
Xc_w56 0 net_150 net_169 vdd net_171#4c_w56_y ProyectoIntegrador__or2
Xc_w57 0 net_131 net_166#2c_w57_b vdd net_150#2c_w57_y 
+ProyectoIntegrador__and2
Xc_w58 0 net_134#2c_w58_a net_190#2c_w58_b vdd net_169#2c_w58_y 
+ProyectoIntegrador__and2
Xc_w59 0 net_179#4c_w59_a net_174#4c_w59_b vdd net_152 
+ProyectoIntegrador__xor2
Xc_w60 0 a8#0c_w60_a vdd net_179 ProyectoIntegrador__id
Xc_w61 0 b8#0c_w61_a vdd net_174 ProyectoIntegrador__id
Xc_w62 0 net_113#2c_w62_a net_195#4c_w62_b vdd net_182 
+ProyectoIntegrador__xor2
Xc_w63 0 net_111 net_193 vdd net_113#4c_w63_y ProyectoIntegrador__or2
Xc_w64 0 net_171 net_152#2c_w64_b vdd net_111#2c_w64_y 
+ProyectoIntegrador__and2
Xc_w65 0 net_179#2c_w65_a net_174#2c_w65_b vdd net_193#2c_w65_y 
+ProyectoIntegrador__and2
Xc_w66 0 net_184#4c_w66_a net_198#4c_w66_b vdd net_195 
+ProyectoIntegrador__xor2
Xc_w67 0 a9#0c_w67_a vdd net_184 ProyectoIntegrador__id
Xc_w68 0 b9#0c_w68_a vdd net_198 ProyectoIntegrador__id
Xc_w69 0 net_118#2c_w69_a net_212#4c_w69_b vdd net_210 
+ProyectoIntegrador__xor2
Xc_w70 0 net_116 net_216 vdd net_118#4c_w70_y ProyectoIntegrador__or2
Xc_w71 0 net_113 net_195#2c_w71_b vdd net_116#2c_w71_y 
+ProyectoIntegrador__and2
Xc_w72 0 net_184#2c_w72_a net_198#2c_w72_b vdd net_216#2c_w72_y 
+ProyectoIntegrador__and2
Xc_w73 0 net_278#2c_w73_a net_236#2c_w73_b vdd net_212 
+ProyectoIntegrador__xor2
Xc_w74 0 a10#0c_w74_a vdd net_278#4c_w74_y ProyectoIntegrador__id
Xc_w75 0 b10#0c_w75_a vdd net_236#4c_w75_y ProyectoIntegrador__id
Xc_w76 0 net_255#2c_w76_a net_275 vdd net_234#2c_w76_y 
+ProyectoIntegrador__xor2
Xc_w77 0 net_258#2c_w77_a net_335#2c_w77_b vdd net_255 
+ProyectoIntegrador__or2
Xc_w78 0 net_118 net_212#2c_w78_b vdd net_258 ProyectoIntegrador__and2
Xc_w79 0 net_278 net_236 vdd net_335 ProyectoIntegrador__and2
Xc_w80 0 net_252 net_307 vdd net_275#4c_w80_y ProyectoIntegrador__xor2
Xc_w81 0 a11#0c_w81_a vdd net_252#4c_w81_y ProyectoIntegrador__id
Xc_w82 0 b11#0c_w82_a vdd net_307#4c_w82_y ProyectoIntegrador__id
Xc_w83 0 net_229#2c_w83_a net_270 vdd net_250#2c_w83_y 
+ProyectoIntegrador__xor2
Xc_w84 0 net_232#2c_w84_a net_273#2c_w84_b vdd net_229 
+ProyectoIntegrador__or2
Xc_w85 0 net_255#4c_w85_a net_275#2c_w85_b vdd net_232 
+ProyectoIntegrador__and2
Xc_w86 0 net_252#2c_w86_a net_307#2c_w86_b vdd net_273 
+ProyectoIntegrador__and2
Xc_w87 0 net_247 net_297 vdd net_270#4c_w87_y ProyectoIntegrador__xor2
Xc_w88 0 a12#0c_w88_a vdd net_247#4c_w88_y ProyectoIntegrador__id
Xc_w89 0 b12#0c_w89_a vdd net_297#4c_w89_y ProyectoIntegrador__id
Xc_w90 0 net_265#2c_w90_a net_224 vdd net_245#2c_w90_y 
+ProyectoIntegrador__xor2
Xc_w91 0 net_227#2c_w91_a net_268#2c_w91_b vdd net_265 
+ProyectoIntegrador__or2
Xc_w92 0 net_229#4c_w92_a net_270#2c_w92_b vdd net_227 
+ProyectoIntegrador__and2
Xc_w93 0 net_247#2c_w93_a net_297#2c_w93_b vdd net_268 
+ProyectoIntegrador__and2
Xc_w94 0 net_242 net_262 vdd net_224#4c_w94_y ProyectoIntegrador__xor2
Xc_w95 0 a13#0c_w95_a vdd net_242#4c_w95_y ProyectoIntegrador__id
Xc_w96 0 b13#0c_w96_a vdd net_262#4c_w96_y ProyectoIntegrador__id
Xc_w97 0 net_285#2c_w97_a net_292 vdd net_305#2c_w97_y 
+ProyectoIntegrador__xor2
Xc_w98 0 net_288#2c_w98_a net_295#2c_w98_b vdd net_285 
+ProyectoIntegrador__or2
Xc_w99 0 net_265#4c_w99_a net_224#2c_w99_b vdd net_288 
+ProyectoIntegrador__and2
Xc_w100 0 net_242#2c_w100_a net_262#2c_w100_b vdd net_295 
+ProyectoIntegrador__and2
Xc_w101 0 net_282 net_302 vdd net_292#4c_w101_y ProyectoIntegrador__xor2
Xc_w102 0 a14#0c_w102_a vdd net_282#4c_w102_y ProyectoIntegrador__id
Xc_w103 0 b14#0c_w103_a vdd net_302#4c_w103_y ProyectoIntegrador__id
Xc_w104 0 net_328#2c_w104_a net_318 vdd net_314#2c_w104_y 
+ProyectoIntegrador__xor2
Xc_w105 0 net_321#2c_w105_a net_331#2c_w105_b vdd net_328 
+ProyectoIntegrador__or2
Xc_w106 0 net_285#4c_w106_a net_292#2c_w106_b vdd net_321 
+ProyectoIntegrador__and2
Xc_w107 0 net_282#2c_w107_a net_302#2c_w107_b vdd net_331 
+ProyectoIntegrador__and2
Xc_w108 0 net_311 net_325 vdd net_318#4c_w108_y ProyectoIntegrador__xor2
Xc_w109 0 a15#0c_w109_a vdd net_311#4c_w109_y ProyectoIntegrador__id
Xc_w110 0 b15#0c_w110_a vdd net_325#4c_w110_y ProyectoIntegrador__id
Xc_w111 0 net_443#2c_w111_a net_354#4c_w111_b vdd net_338 
+ProyectoIntegrador__xor2
Xc_w112 0 net_368#2c_w112_a net_352#2c_w112_b vdd net_443#4c_w112_y 
+ProyectoIntegrador__or2
Xc_w113 0 net_328#4c_w113_a net_318#2c_w113_b vdd net_368 
+ProyectoIntegrador__and2
Xc_w114 0 net_311#2c_w114_a net_325#2c_w114_b vdd net_352 
+ProyectoIntegrador__and2
Xc_w115 0 net_446#4c_w115_a net_370#4c_w115_b vdd net_354 
+ProyectoIntegrador__xor2
Xc_w116 0 a16#0c_w116_a vdd net_446 ProyectoIntegrador__id
Xc_w117 0 b16#0c_w117_a vdd net_370 ProyectoIntegrador__id
Xc_w118 0 net_342#2c_w118_a net_375#4c_w118_b vdd net_373 
+ProyectoIntegrador__xor2
Xc_w119 0 net_340 net_357 vdd net_342#4c_w119_y ProyectoIntegrador__or2
Xc_w120 0 net_443 net_354#2c_w120_b vdd net_340#2c_w120_y 
+ProyectoIntegrador__and2
Xc_w121 0 net_446#2c_w121_a net_370#2c_w121_b vdd net_357#2c_w121_y 
+ProyectoIntegrador__and2
Xc_w122 0 net_359#4c_w122_a net_410#4c_w122_b vdd net_375 
+ProyectoIntegrador__xor2
Xc_w123 0 a17#0c_w123_a vdd net_359 ProyectoIntegrador__id
Xc_w124 0 b17#0c_w124_a vdd net_410 ProyectoIntegrador__id
Xc_w125 0 net_380#2c_w125_a net_347#4c_w125_b vdd net_362 
+ProyectoIntegrador__xor2
Xc_w126 0 net_345 net_378 vdd net_380#4c_w126_y ProyectoIntegrador__or2
Xc_w127 0 net_342 net_375#2c_w127_b vdd net_345#2c_w127_y 
+ProyectoIntegrador__and2
Xc_w128 0 net_359#2c_w128_a net_410#2c_w128_b vdd net_378#2c_w128_y 
+ProyectoIntegrador__and2
Xc_w129 0 net_364#4c_w129_a net_383#4c_w129_b vdd net_347 
+ProyectoIntegrador__xor2
Xc_w130 0 a18#0c_w130_a vdd net_364 ProyectoIntegrador__id
Xc_w131 0 b18#0c_w131_a vdd net_383 ProyectoIntegrador__id
Xc_w132 0 net_390#2c_w132_a net_415#4c_w132_b vdd net_413 
+ProyectoIntegrador__xor2
Xc_w133 0 net_388 net_403 vdd net_390#4c_w133_y ProyectoIntegrador__or2
Xc_w134 0 net_380 net_347#2c_w134_b vdd net_388#2c_w134_y 
+ProyectoIntegrador__and2
Xc_w135 0 net_364#2c_w135_a net_383#2c_w135_b vdd net_403#2c_w135_y 
+ProyectoIntegrador__and2
Xc_w136 0 net_405#4c_w136_a net_433#4c_w136_b vdd net_415 
+ProyectoIntegrador__xor2
Xc_w137 0 a19#0c_w137_a vdd net_405 ProyectoIntegrador__id
Xc_w138 0 b19#0c_w138_a vdd net_433 ProyectoIntegrador__id
Xc_w139 0 net_395#2c_w139_a net_422#4c_w139_b vdd net_436 
+ProyectoIntegrador__xor2
Xc_w140 0 net_393 net_420 vdd net_395#4c_w140_y ProyectoIntegrador__or2
Xc_w141 0 net_390 net_415#2c_w141_b vdd net_393#2c_w141_y 
+ProyectoIntegrador__and2
Xc_w142 0 net_405#2c_w142_a net_433#2c_w142_b vdd net_420#2c_w142_y 
+ProyectoIntegrador__and2
Xc_w143 0 net_398#4c_w143_a net_425#4c_w143_b vdd net_422 
+ProyectoIntegrador__xor2
Xc_w144 0 a20#0c_w144_a vdd net_398 ProyectoIntegrador__id
Xc_w145 0 b20#0c_w145_a vdd net_425 ProyectoIntegrador__id
Xc_w146 0 net_492#2c_w146_a net_468#2c_w146_b vdd net_428 
+ProyectoIntegrador__xor2
Xc_w147 0 net_441 net_438 vdd net_492#4c_w147_y ProyectoIntegrador__or2
Xc_w148 0 net_395 net_422#2c_w148_b vdd net_441#2c_w148_y 
+ProyectoIntegrador__and2
Xc_w149 0 net_398#2c_w149_a net_425#2c_w149_b vdd net_438#2c_w149_y 
+ProyectoIntegrador__and2
Xc_w150 0 net_561 net_489 vdd net_468#4c_w150_y ProyectoIntegrador__xor2
Xc_w151 0 a21#0c_w151_a vdd net_561#4c_w151_y ProyectoIntegrador__id
Xc_w152 0 b21#0c_w152_a vdd net_489#4c_w152_y ProyectoIntegrador__id
Xc_w153 0 net_463#2c_w153_a net_536 vdd net_487#2c_w153_y 
+ProyectoIntegrador__xor2
Xc_w154 0 net_558#2c_w154_a net_466#2c_w154_b vdd net_463 
+ProyectoIntegrador__or2
Xc_w155 0 net_492 net_468 vdd net_558 ProyectoIntegrador__and2
Xc_w156 0 net_561#2c_w156_a net_489#2c_w156_b vdd net_466 
+ProyectoIntegrador__and2
Xc_w157 0 net_484 net_555 vdd net_536#4c_w157_y ProyectoIntegrador__xor2
Xc_w158 0 a22#0c_w158_a vdd net_484#4c_w158_y ProyectoIntegrador__id
Xc_w159 0 b22#0c_w159_a vdd net_555#4c_w159_y ProyectoIntegrador__id
Xc_w160 0 net_458#2c_w160_a net_521 vdd net_482#2c_w160_y 
+ProyectoIntegrador__xor2
Xc_w161 0 net_461#2c_w161_a net_534#2c_w161_b vdd net_458 
+ProyectoIntegrador__or2
Xc_w162 0 net_463#4c_w162_a net_536#2c_w162_b vdd net_461 
+ProyectoIntegrador__and2
Xc_w163 0 net_484#2c_w163_a net_555#2c_w163_b vdd net_534 
+ProyectoIntegrador__and2
Xc_w164 0 net_479 net_531 vdd net_521#4c_w164_y ProyectoIntegrador__xor2
Xc_w165 0 a23#0c_w165_a vdd net_479#4c_w165_y ProyectoIntegrador__id
Xc_w166 0 b23#0c_w166_a vdd net_531#4c_w166_y ProyectoIntegrador__id
Xc_w167 0 net_504#2c_w167_a net_453 vdd net_477#2c_w167_y 
+ProyectoIntegrador__xor2
Xc_w168 0 net_456#2c_w168_a net_519#2c_w168_b vdd net_504 
+ProyectoIntegrador__or2
Xc_w169 0 net_458#4c_w169_a net_521#2c_w169_b vdd net_456 
+ProyectoIntegrador__and2
Xc_w170 0 net_479#2c_w170_a net_531#2c_w170_b vdd net_519 
+ProyectoIntegrador__and2
Xc_w171 0 net_509 net_474 vdd net_453#4c_w171_y ProyectoIntegrador__xor2
Xc_w172 0 a24#0c_w172_a vdd net_509#4c_w172_y ProyectoIntegrador__id
Xc_w173 0 b24#0c_w173_a vdd net_474#4c_w173_y ProyectoIntegrador__id
Xc_w174 0 net_499#2c_w174_a net_514 vdd net_529#2c_w174_y 
+ProyectoIntegrador__xor2
Xc_w175 0 net_502#2c_w175_a net_517#2c_w175_b vdd net_499 
+ProyectoIntegrador__or2
Xc_w176 0 net_504#4c_w176_a net_453#2c_w176_b vdd net_502 
+ProyectoIntegrador__and2
Xc_w177 0 net_509#2c_w177_a net_474#2c_w177_b vdd net_517 
+ProyectoIntegrador__and2
Xc_w178 0 net_496 net_526 vdd net_514#4c_w178_y ProyectoIntegrador__xor2
Xc_w179 0 a25#0c_w179_a vdd net_496#4c_w179_y ProyectoIntegrador__id
Xc_w180 0 b25#0c_w180_a vdd net_526#4c_w180_y ProyectoIntegrador__id
Xc_w181 0 net_546#2c_w181_a net_540 vdd net_543#2c_w181_y 
+ProyectoIntegrador__xor2
Xc_w182 0 net_549#2c_w182_a net_552#2c_w182_b vdd net_546 
+ProyectoIntegrador__or2
Xc_w183 0 net_499#4c_w183_a net_514#2c_w183_b vdd net_549 
+ProyectoIntegrador__and2
Xc_w184 0 net_496#2c_w184_a net_526#2c_w184_b vdd net_552 
+ProyectoIntegrador__and2
Xc_w185 0 net_565#2c_w185_a net_589 vdd net_540#4c_w185_y 
+ProyectoIntegrador__xor2
Xc_w186 0 a26#0c_w186_a vdd net_565 ProyectoIntegrador__id
Xc_w187 0 b26#0c_w187_a vdd net_589#2c_w187_y ProyectoIntegrador__id
Xc_w188 0 net_594#2c_w188_a net_623#4c_w188_b vdd net_568 
+ProyectoIntegrador__xor2
Xc_w189 0 net_592 net_621 vdd net_594#4c_w189_y ProyectoIntegrador__or2
Xc_w190 0 net_546#4c_w190_a net_540#2c_w190_b vdd net_592#2c_w190_y 
+ProyectoIntegrador__and2
Xc_w191 0 net_565#4c_w191_a net_589#4c_w191_b vdd net_621#2c_w191_y 
+ProyectoIntegrador__and2