*** SPICE deck for cell rippleCarry16;1{lay} from library ProyectoIntegrador
*** Created on mar sep 02, 2014 20:07:41
*** Last revised on jue oct 02, 2014 20:52:15
*** Written on dom oct 05, 2014 21:33:39 by Electric VLSI Design System, 
*** version 9.05
*** Layout tech: mocmos, foundry MOSIS
*** UC SPICE *** , MIN_RESIST 0.01, MIN_CAPAC 0.01FF
***    P-Active:	areacap=1.167FF/um^2,	edgecap=0.203FF/um,	res=7.5ohms/sq
***    N-Active:	areacap=0.982FF/um^2,	edgecap=0.244FF/um,	res=6.7ohms/sq
***    
*** Polysilicon-1:	areacap=0.1467FF/um^2,	edgecap=0.0608FF/um,	res=7.8ohms/sq
***    Transistor-Poly:	areacap=0.09FF/um^2,	edgecap=0.0FF/um,	res=2.5ohms/sq
***    Poly-Cut:	areacap=0.0FF/um^2,	edgecap=0.0FF/um,	res=10.5ohms/sq
***    Active-Cut:	areacap=0.0FF/um^2,	edgecap=0.0FF/um,	res=12.2ohms/sq
***    Metal-1:	areacap=0.1209FF/um^2,	edgecap=0.1104FF/um,	res=0.08ohms/sq
***    Via1:	areacap=0.0FF/um^2,	edgecap=0.0FF/um,	res=5.69ohms/sq
***    Metal-2:	areacap=0.0843FF/um^2,	edgecap=0.0974FF/um,	res=0.08ohms/sq
***    Via2:	areacap=0.0FF/um^2,	edgecap=0.0FF/um,	res=11.39ohms/sq
***    Metal-3:	areacap=0.0843FF/um^2,	edgecap=0.0974FF/um,	res=0.08ohms/sq
***    Via3:	areacap=0.0FF/um^2,	edgecap=0.0FF/um,	res=16.73ohms/sq
***    Metal-4:	areacap=0.0843FF/um^2,	edgecap=0.0974FF/um,	res=0.08ohms/sq
***    Via4:	areacap=0.0FF/um^2,	edgecap=0.0FF/um,	res=21.44ohms/sq
***    Metal-5:	areacap=0.0843FF/um^2,	edgecap=0.0974FF/um,	res=0.07ohms/sq
***    Via5:	areacap=0.0FF/um^2,	edgecap=0.0FF/um,	res=24.08ohms/sq
***    Metal-6:	areacap=0.0423FF/um^2,	edgecap=0.1273FF/um,	res=0.03ohms/sq
***    Hi-Res:	areacap=0.0FF/um^2,	edgecap=0.0FF/um,	res=1.0ohms/sq
* Model cards are described in this file:
.include /home/lean/tfinal/trabajo/models/tsmc180nm.model

*** SUBCIRCUIT ProyectoIntegrador__id FROM CELL id{lay}
.SUBCKT ProyectoIntegrador__id vss a vdd y
Mnmos_0 net_10 a#1nmos@0_poly-right 0 0 N L=0.2U W=0.4U AS=0.6P AD=0.3P 
+PS=5.8U PD=2.2U
Mnmos_1 y#0contact@11_metal-1-n-act net_10#6nmos@1_poly-right 0 0 N L=0.2U 
+W=0.4U AS=0.6P AD=0.3P PS=5.8U PD=2.2U
Mpmos_0 net_10#2contact@4_metal-1-p-act a#5pmos@0_poly-left vdd vdd P L=0.2U 
+W=0.8U AS=0.8P AD=0.3P PS=6.6U PD=2.2U
Mpmos_1 y#2contact@12_metal-1-p-act net_10#10pmos@1_poly-left vdd vdd P 
+L=0.2U W=0.8U AS=0.8P AD=0.3P PS=6.6U PD=2.2U
** Extracted Parasitic Capacitors ***
C0 net_10 0 0.649fF
C1 net_10#2contact@4_metal-1-p-act 0 0.623fF
C2 a#0contact@5_metal-1-polysilicon-1 0 0.01fF
C3 y#0contact@11_metal-1-n-act 0 0.546fF
C4 y#2contact@12_metal-1-p-act 0 0.726fF
C5 net_10#5contact@13_metal-1-polysilicon-1 0 0.01fF
C6 y 0 1.272fF
C7 net_10#4contact@15_metal-1-metal-2 0 0.109fF
C8 a#1nmos@0_poly-right 0 0.02fF
C9 net_10#6nmos@1_poly-right 0 0.02fF
C10 a#2pin@29_polysilicon-1 0 0.055fF
C11 a#4pin@31_polysilicon-1 0 0.056fF
C12 a#3pin@32_polysilicon-1 0 0.075fF
C13 net_10#7pin@36_polysilicon-1 0 0.055fF
C14 net_10#9pin@37_polysilicon-1 0 0.056fF
C15 net_10#8pin@38_polysilicon-1 0 0.075fF
C16 net_10#11pin@39_metal-1 0 1.375fF
C17 a#5pmos@0_poly-left 0 0.02fF
C18 net_10#10pmos@1_poly-left 0 0.02fF
** Extracted Parasitic Resistors ***
R0 a a#0contact@5_metal-1-polysilicon-1 0.013
R1 a#1nmos@0_poly-right a#1nmos@0_poly-right##0 7.8
C19 a#1nmos@0_poly-right##0 0 0.02fF
R2 a#1nmos@0_poly-right##0 a#2pin@29_polysilicon-1 7.8
R3 a#3pin@32_polysilicon-1 a#3pin@32_polysilicon-1##0 9.545
C20 a#3pin@32_polysilicon-1##0 0 0.035fF
R4 a#3pin@32_polysilicon-1##0 a#3pin@32_polysilicon-1##1 9.545
C21 a#3pin@32_polysilicon-1##1 0 0.035fF
R5 a#3pin@32_polysilicon-1##1 a#3pin@32_polysilicon-1##2 9.545
C22 a#3pin@32_polysilicon-1##2 0 0.035fF
R6 a#3pin@32_polysilicon-1##2 a#3pin@32_polysilicon-1##3 9.545
C23 a#3pin@32_polysilicon-1##3 0 0.035fF
R7 a#3pin@32_polysilicon-1##3 a#3pin@32_polysilicon-1##4 9.545
C24 a#3pin@32_polysilicon-1##4 0 0.035fF
R8 a#3pin@32_polysilicon-1##4 a#3pin@32_polysilicon-1##5 9.545
C25 a#3pin@32_polysilicon-1##5 0 0.035fF
R9 a#3pin@32_polysilicon-1##5 a#3pin@32_polysilicon-1##6 9.545
C26 a#3pin@32_polysilicon-1##6 0 0.035fF
R10 a#3pin@32_polysilicon-1##6 a#3pin@32_polysilicon-1##7 9.545
C27 a#3pin@32_polysilicon-1##7 0 0.035fF
R11 a#3pin@32_polysilicon-1##7 a#3pin@32_polysilicon-1##8 9.545
C28 a#3pin@32_polysilicon-1##8 0 0.035fF
R12 a#3pin@32_polysilicon-1##8 a#3pin@32_polysilicon-1##9 9.545
C29 a#3pin@32_polysilicon-1##9 0 0.035fF
R13 a#3pin@32_polysilicon-1##9 a#3pin@32_polysilicon-1##10 9.545
C30 a#3pin@32_polysilicon-1##10 0 0.035fF
R14 a#3pin@32_polysilicon-1##10 a#3pin@32_polysilicon-1##11 9.545
C31 a#3pin@32_polysilicon-1##11 0 0.035fF
R15 a#3pin@32_polysilicon-1##11 a#3pin@32_polysilicon-1##12 9.545
C32 a#3pin@32_polysilicon-1##12 0 0.035fF
R16 a#3pin@32_polysilicon-1##12 a#3pin@32_polysilicon-1##13 9.545
C33 a#3pin@32_polysilicon-1##13 0 0.035fF
R17 a#3pin@32_polysilicon-1##13 a#3pin@32_polysilicon-1##14 9.545
C34 a#3pin@32_polysilicon-1##14 0 0.035fF
R18 a#3pin@32_polysilicon-1##14 a#3pin@32_polysilicon-1##15 9.545
C35 a#3pin@32_polysilicon-1##15 0 0.035fF
R19 a#3pin@32_polysilicon-1##15 a#3pin@32_polysilicon-1##16 9.545
C36 a#3pin@32_polysilicon-1##16 0 0.035fF
R20 a#3pin@32_polysilicon-1##16 a#3pin@32_polysilicon-1##17 9.545
C37 a#3pin@32_polysilicon-1##17 0 0.035fF
R21 a#3pin@32_polysilicon-1##17 a#2pin@29_polysilicon-1 9.545
R22 a#4pin@31_polysilicon-1 a#4pin@31_polysilicon-1##0 9.872
C38 a#4pin@31_polysilicon-1##0 0 0.036fF
R23 a#4pin@31_polysilicon-1##0 a#4pin@31_polysilicon-1##1 9.872
C39 a#4pin@31_polysilicon-1##1 0 0.036fF
R24 a#4pin@31_polysilicon-1##1 a#4pin@31_polysilicon-1##2 9.872
C40 a#4pin@31_polysilicon-1##2 0 0.036fF
R25 a#4pin@31_polysilicon-1##2 a#4pin@31_polysilicon-1##3 9.872
C41 a#4pin@31_polysilicon-1##3 0 0.036fF
R26 a#4pin@31_polysilicon-1##3 a#4pin@31_polysilicon-1##4 9.872
C42 a#4pin@31_polysilicon-1##4 0 0.036fF
R27 a#4pin@31_polysilicon-1##4 a#4pin@31_polysilicon-1##5 9.872
C43 a#4pin@31_polysilicon-1##5 0 0.036fF
R28 a#4pin@31_polysilicon-1##5 a#4pin@31_polysilicon-1##6 9.872
C44 a#4pin@31_polysilicon-1##6 0 0.036fF
R29 a#4pin@31_polysilicon-1##6 a#4pin@31_polysilicon-1##7 9.872
C45 a#4pin@31_polysilicon-1##7 0 0.036fF
R30 a#4pin@31_polysilicon-1##7 a#4pin@31_polysilicon-1##8 9.872
C46 a#4pin@31_polysilicon-1##8 0 0.036fF
R31 a#4pin@31_polysilicon-1##8 a#4pin@31_polysilicon-1##9 9.872
C47 a#4pin@31_polysilicon-1##9 0 0.036fF
R32 a#4pin@31_polysilicon-1##9 a#4pin@31_polysilicon-1##10 9.872
C48 a#4pin@31_polysilicon-1##10 0 0.036fF
R33 a#4pin@31_polysilicon-1##10 a#4pin@31_polysilicon-1##11 9.872
C49 a#4pin@31_polysilicon-1##11 0 0.036fF
R34 a#4pin@31_polysilicon-1##11 a#4pin@31_polysilicon-1##12 9.872
C50 a#4pin@31_polysilicon-1##12 0 0.036fF
R35 a#4pin@31_polysilicon-1##12 a#4pin@31_polysilicon-1##13 9.872
C51 a#4pin@31_polysilicon-1##13 0 0.036fF
R36 a#4pin@31_polysilicon-1##13 a#4pin@31_polysilicon-1##14 9.872
C52 a#4pin@31_polysilicon-1##14 0 0.036fF
R37 a#4pin@31_polysilicon-1##14 a#3pin@32_polysilicon-1 9.872
R38 a#0contact@5_metal-1-polysilicon-1 a#3pin@32_polysilicon-1 1.95
R39 a#5pmos@0_poly-left a#5pmos@0_poly-left##0 7.8
C53 a#5pmos@0_poly-left##0 0 0.02fF
R40 a#5pmos@0_poly-left##0 a#4pin@31_polysilicon-1 7.8
R41 net_10#4contact@15_metal-1-metal-2 
+net_10#5contact@13_metal-1-polysilicon-1 0.013
R42 net_10#6nmos@1_poly-right net_10#6nmos@1_poly-right##0 7.8
C54 net_10#6nmos@1_poly-right##0 0 0.02fF
R43 net_10#6nmos@1_poly-right##0 net_10#7pin@36_polysilicon-1 7.8
R44 net_10#8pin@38_polysilicon-1 net_10#8pin@38_polysilicon-1##0 9.545
C55 net_10#8pin@38_polysilicon-1##0 0 0.035fF
R45 net_10#8pin@38_polysilicon-1##0 net_10#8pin@38_polysilicon-1##1 9.545
C56 net_10#8pin@38_polysilicon-1##1 0 0.035fF
R46 net_10#8pin@38_polysilicon-1##1 net_10#8pin@38_polysilicon-1##2 9.545
C57 net_10#8pin@38_polysilicon-1##2 0 0.035fF
R47 net_10#8pin@38_polysilicon-1##2 net_10#8pin@38_polysilicon-1##3 9.545
C58 net_10#8pin@38_polysilicon-1##3 0 0.035fF
R48 net_10#8pin@38_polysilicon-1##3 net_10#8pin@38_polysilicon-1##4 9.545
C59 net_10#8pin@38_polysilicon-1##4 0 0.035fF
R49 net_10#8pin@38_polysilicon-1##4 net_10#8pin@38_polysilicon-1##5 9.545
C60 net_10#8pin@38_polysilicon-1##5 0 0.035fF
R50 net_10#8pin@38_polysilicon-1##5 net_10#8pin@38_polysilicon-1##6 9.545
C61 net_10#8pin@38_polysilicon-1##6 0 0.035fF
R51 net_10#8pin@38_polysilicon-1##6 net_10#8pin@38_polysilicon-1##7 9.545
C62 net_10#8pin@38_polysilicon-1##7 0 0.035fF
R52 net_10#8pin@38_polysilicon-1##7 net_10#8pin@38_polysilicon-1##8 9.545
C63 net_10#8pin@38_polysilicon-1##8 0 0.035fF
R53 net_10#8pin@38_polysilicon-1##8 net_10#8pin@38_polysilicon-1##9 9.545
C64 net_10#8pin@38_polysilicon-1##9 0 0.035fF
R54 net_10#8pin@38_polysilicon-1##9 net_10#8pin@38_polysilicon-1##10 9.545
C65 net_10#8pin@38_polysilicon-1##10 0 0.035fF
R55 net_10#8pin@38_polysilicon-1##10 net_10#8pin@38_polysilicon-1##11 9.545
C66 net_10#8pin@38_polysilicon-1##11 0 0.035fF
R56 net_10#8pin@38_polysilicon-1##11 net_10#8pin@38_polysilicon-1##12 9.545
C67 net_10#8pin@38_polysilicon-1##12 0 0.035fF
R57 net_10#8pin@38_polysilicon-1##12 net_10#8pin@38_polysilicon-1##13 9.545
C68 net_10#8pin@38_polysilicon-1##13 0 0.035fF
R58 net_10#8pin@38_polysilicon-1##13 net_10#8pin@38_polysilicon-1##14 9.545
C69 net_10#8pin@38_polysilicon-1##14 0 0.035fF
R59 net_10#8pin@38_polysilicon-1##14 net_10#8pin@38_polysilicon-1##15 9.545
C70 net_10#8pin@38_polysilicon-1##15 0 0.035fF
R60 net_10#8pin@38_polysilicon-1##15 net_10#8pin@38_polysilicon-1##16 9.545
C71 net_10#8pin@38_polysilicon-1##16 0 0.035fF
R61 net_10#8pin@38_polysilicon-1##16 net_10#8pin@38_polysilicon-1##17 9.545
C72 net_10#8pin@38_polysilicon-1##17 0 0.035fF
R62 net_10#8pin@38_polysilicon-1##17 net_10#7pin@36_polysilicon-1 9.545
R63 net_10#9pin@37_polysilicon-1 net_10#9pin@37_polysilicon-1##0 9.872
C73 net_10#9pin@37_polysilicon-1##0 0 0.036fF
R64 net_10#9pin@37_polysilicon-1##0 net_10#9pin@37_polysilicon-1##1 9.872
C74 net_10#9pin@37_polysilicon-1##1 0 0.036fF
R65 net_10#9pin@37_polysilicon-1##1 net_10#9pin@37_polysilicon-1##2 9.872
C75 net_10#9pin@37_polysilicon-1##2 0 0.036fF
R66 net_10#9pin@37_polysilicon-1##2 net_10#9pin@37_polysilicon-1##3 9.872
C76 net_10#9pin@37_polysilicon-1##3 0 0.036fF
R67 net_10#9pin@37_polysilicon-1##3 net_10#9pin@37_polysilicon-1##4 9.872
C77 net_10#9pin@37_polysilicon-1##4 0 0.036fF
R68 net_10#9pin@37_polysilicon-1##4 net_10#9pin@37_polysilicon-1##5 9.872
C78 net_10#9pin@37_polysilicon-1##5 0 0.036fF
R69 net_10#9pin@37_polysilicon-1##5 net_10#9pin@37_polysilicon-1##6 9.872
C79 net_10#9pin@37_polysilicon-1##6 0 0.036fF
R70 net_10#9pin@37_polysilicon-1##6 net_10#9pin@37_polysilicon-1##7 9.872
C80 net_10#9pin@37_polysilicon-1##7 0 0.036fF
R71 net_10#9pin@37_polysilicon-1##7 net_10#9pin@37_polysilicon-1##8 9.872
C81 net_10#9pin@37_polysilicon-1##8 0 0.036fF
R72 net_10#9pin@37_polysilicon-1##8 net_10#9pin@37_polysilicon-1##9 9.872
C82 net_10#9pin@37_polysilicon-1##9 0 0.036fF
R73 net_10#9pin@37_polysilicon-1##9 net_10#9pin@37_polysilicon-1##10 9.872
C83 net_10#9pin@37_polysilicon-1##10 0 0.036fF
R74 net_10#9pin@37_polysilicon-1##10 net_10#9pin@37_polysilicon-1##11 9.872
C84 net_10#9pin@37_polysilicon-1##11 0 0.036fF
R75 net_10#9pin@37_polysilicon-1##11 net_10#9pin@37_polysilicon-1##12 9.872
C85 net_10#9pin@37_polysilicon-1##12 0 0.036fF
R76 net_10#9pin@37_polysilicon-1##12 net_10#9pin@37_polysilicon-1##13 9.872
C86 net_10#9pin@37_polysilicon-1##13 0 0.036fF
R77 net_10#9pin@37_polysilicon-1##13 net_10#9pin@37_polysilicon-1##14 9.872
C87 net_10#9pin@37_polysilicon-1##14 0 0.036fF
R78 net_10#9pin@37_polysilicon-1##14 net_10#8pin@38_polysilicon-1 9.872
R79 net_10#5contact@13_metal-1-polysilicon-1 net_10#8pin@38_polysilicon-1 
+1.95
R80 net_10#10pmos@1_poly-left net_10#10pmos@1_poly-left##0 7.8
C88 net_10#10pmos@1_poly-left##0 0 0.02fF
R81 net_10#10pmos@1_poly-left##0 net_10#9pin@37_polysilicon-1 7.8
R82 y#2contact@12_metal-1-p-act y 1.507
R83 net_10#2contact@4_metal-1-p-act net_10#11pin@39_metal-1 1.293
R84 net_10#11pin@39_metal-1 net_10 1.347
R85 net_10#11pin@39_metal-1 net_10#4contact@15_metal-1-metal-2 0.213
R86 y#0contact@11_metal-1-n-act y 1.133
.ENDS ProyectoIntegrador__id

*** SUBCIRCUIT ProyectoIntegrador__xor2 FROM CELL xor2{lay}
.SUBCKT ProyectoIntegrador__xor2 vss a b vdd y
Mnmos_0 net_79 a#9nmos@0_poly-right 0 0 N L=0.2U W=0.4U AS=0.44P AD=0.088P 
+PS=4.2U PD=0.85U
Mnmos_1 net_76 net_160#11nmos@1_poly-right y#0contact@4_metal-1-n-act 0 N 
+L=0.2U W=0.4U AS=0.12P AD=0.088P PS=1U PD=0.85U
Mnmos_2 0 net_270#10nmos@2_poly-right net_76 0 N L=0.2U W=0.4U AS=0.088P 
+AD=0.44P PS=0.85U PD=4.2U
Mnmos_3 y#0contact@4_metal-1-n-act b#5nmos@3_poly-right net_79 0 N L=0.2U 
+W=0.4U AS=0.088P AD=0.12P PS=0.85U PD=1U
Mnmos_4 net_160#12contact@20_metal-1-n-act b#0nmos@4_poly-right 0 0 N L=0.2U 
+W=0.4U AS=0.44P AD=0.2P PS=4.2U PD=1.8U
Mnmos_5 0 a#5nmos@5_poly-right net_270#8contact@24_metal-1-n-act 0 N L=0.2U 
+W=0.4U AS=0.2P AD=0.44P PS=1.8U PD=4.2U
Mpmos_0 net_68 net_270#12pmos@0_poly-left vdd vdd P L=0.2U W=0.4U AS=0.44P 
+AD=0.088P PS=4.2U PD=0.85U
Mpmos_1 y#4contact@53_metal-1-p-act b#11pmos@1_poly-left net_68 vdd P L=0.2U 
+W=0.4U AS=0.088P AD=0.12P PS=0.85U PD=1U
Mpmos_2 net_70 net_160#5pmos@2_poly-left y#4contact@53_metal-1-p-act vdd P 
+L=0.2U W=0.4U AS=0.12P AD=0.088P PS=1U PD=0.85U
Mpmos_4 vdd a#12pmos@4_poly-left net_70 vdd P L=0.2U W=0.4U AS=0.088P 
+AD=0.44P PS=0.85U PD=4.2U
Mpmos_5 vdd a#1pmos@5_poly-left net_270#15contact@54_metal-1-p-act vdd P 
+L=0.2U W=0.4U AS=0.2P AD=0.44P PS=1.8U PD=4.2U
Mpmos_6 net_160 b#13pmos@6_poly-left vdd vdd P L=0.2U W=0.4U AS=0.44P AD=0.2P 
+PS=4.2U PD=1.8U
** Extracted Parasitic Capacitors ***
C0 y#0contact@4_metal-1-n-act 0 0.058fF
C1 y#2contact@7_metal-1-metal-2 0 1.022fF
C2 y 0 1.054fF
C3 a#0contact@12_metal-1-polysilicon-1 0 0.402fF
C4 net_160#12contact@20_metal-1-n-act 0 0.051fF
C5 net_270#8contact@24_metal-1-n-act 0 0.019fF
C6 net_160 0 0.051fF
C7 a#3pin@76_polysilicon-1 0 0.168fF
C8 net_160#3contact@30_metal-1-metal-2 0 0.657fF
C9 net_160#14contact@31_metal-1-metal-2 0 0.485fF
C10 b#3contact@34_metal-1-polysilicon-1 0 0.152fF
C11 b 0 0.411fF
C12 net_270#5contact@37_metal-1-metal-2 0 0.352fF
C13 net_270#2contact@38_metal-1-metal-2 0 0.289fF
C14 net_270#1contact@39_metal-1-metal-2 0 1.247fF
C15 a 0 0.495fF
C16 net_160#4contact@44_metal-1-polysilicon-1 0 0.293fF
C17 net_160#2contact@45_metal-1-metal-2 0 1.373fF
C18 b#12contact@48_metal-1-polysilicon-1 0 0.267fF
C19 net_270#4contact@49_metal-1-polysilicon-1 0 0.554fF
C20 net_270 0 0.669fF
C21 net_270#6contact@51_metal-1-polysilicon-1 0 0.133fF
C22 y#4contact@53_metal-1-p-act 0 0.026fF
C23 net_270#15contact@54_metal-1-p-act 0 0.25fF
C24 a#9nmos@0_poly-right 0 0.025fF
C25 net_160#11nmos@1_poly-right 0 0.032fF
C26 net_270#10nmos@2_poly-right 0 0.025fF
C27 b#5nmos@3_poly-right 0 0.03fF
C28 b#0nmos@4_poly-right 0 0.024fF
C29 a#5nmos@5_poly-right 0 0.02fF
C30 a#2pin@74_polysilicon-1 0 0.057fF
C31 a#4pin@75_polysilicon-1 0 0.055fF
C32 b#1pin@77_polysilicon-1 0 0.06fF
C33 b#2pin@88_polysilicon-1 0 0.074fF
C34 b#6pin@104_polysilicon-1 0 0.045fF
C35 b#7pin@105_polysilicon-1 0 0.05fF
C36 b#9pin@106_polysilicon-1 0 0.051fF
C37 b#10pin@107_polysilicon-1 0 0.045fF
C38 net_160#6pin@108_polysilicon-1 0 0.047fF
C39 net_160#7pin@109_polysilicon-1 0 0.049fF
C40 net_160#9pin@110_polysilicon-1 0 0.047fF
C41 net_160#10pin@111_polysilicon-1 0 0.047fF
C42 b#8pin@112_polysilicon-1 0 0.074fF
C43 net_160#8pin@113_polysilicon-1 0 0.07fF
C44 net_270#11pin@116_polysilicon-1 0 0.049fF
C45 net_270#3pin@117_polysilicon-1 0 0.057fF
C46 a#10pin@121_polysilicon-1 0 0.045fF
C47 a#11pin@122_polysilicon-1 0 0.053fF
C48 net_270#13pin@123_polysilicon-1 0 0.047fF
C49 net_270#14pin@124_polysilicon-1 0 0.053fF
C50 b#4pin@126_polysilicon-1 0 0.059fF
C51 a#13pin@127_polysilicon-1 0 0.047fF
C52 a#8pin@128_polysilicon-1 0 0.056fF
C53 y#8pin@135_metal-1 0 0.084fF
C54 y#9pin@136_metal-1 0 0.084fF
C55 net_160#15pin@137_metal-1 0 0.058fF
C56 net_270#12pmos@0_poly-left 0 0.027fF
C57 b#11pmos@1_poly-left 0 0.03fF
C58 net_160#5pmos@2_poly-left 0 0.032fF
C59 a#12pmos@4_poly-left 0 0.027fF
C60 a#1pmos@5_poly-left 0 0.02fF
C61 b#13pmos@6_poly-left 0 0.024fF
** Extracted Parasitic Resistors ***
R0 y y#2contact@7_metal-1-metal-2 2.413
R1 a#0contact@12_metal-1-polysilicon-1 a 0.76
R2 a#1pmos@5_poly-left a#1pmos@5_poly-left##0 7.8
C62 a#1pmos@5_poly-left##0 0 0.02fF
R3 a#1pmos@5_poly-left##0 a#2pin@74_polysilicon-1 7.8
R4 a#2pin@74_polysilicon-1 a#2pin@74_polysilicon-1##0 9.912
C63 a#2pin@74_polysilicon-1##0 0 0.037fF
R5 a#2pin@74_polysilicon-1##0 a#2pin@74_polysilicon-1##1 9.912
C64 a#2pin@74_polysilicon-1##1 0 0.037fF
R6 a#2pin@74_polysilicon-1##1 a#2pin@74_polysilicon-1##2 9.912
C65 a#2pin@74_polysilicon-1##2 0 0.037fF
R7 a#2pin@74_polysilicon-1##2 a#2pin@74_polysilicon-1##3 9.912
C66 a#2pin@74_polysilicon-1##3 0 0.037fF
R8 a#2pin@74_polysilicon-1##3 a#2pin@74_polysilicon-1##4 9.912
C67 a#2pin@74_polysilicon-1##4 0 0.037fF
R9 a#2pin@74_polysilicon-1##4 a#2pin@74_polysilicon-1##5 9.912
C68 a#2pin@74_polysilicon-1##5 0 0.037fF
R10 a#2pin@74_polysilicon-1##5 a#2pin@74_polysilicon-1##6 9.912
C69 a#2pin@74_polysilicon-1##6 0 0.037fF
R11 a#2pin@74_polysilicon-1##6 a#2pin@74_polysilicon-1##7 9.912
C70 a#2pin@74_polysilicon-1##7 0 0.037fF
R12 a#2pin@74_polysilicon-1##7 a#2pin@74_polysilicon-1##8 9.912
C71 a#2pin@74_polysilicon-1##8 0 0.037fF
R13 a#2pin@74_polysilicon-1##8 a#2pin@74_polysilicon-1##9 9.912
C72 a#2pin@74_polysilicon-1##9 0 0.037fF
R14 a#2pin@74_polysilicon-1##9 a#2pin@74_polysilicon-1##10 9.912
C73 a#2pin@74_polysilicon-1##10 0 0.037fF
R15 a#2pin@74_polysilicon-1##10 a#2pin@74_polysilicon-1##11 9.912
C74 a#2pin@74_polysilicon-1##11 0 0.037fF
R16 a#2pin@74_polysilicon-1##11 a#2pin@74_polysilicon-1##12 9.912
C75 a#2pin@74_polysilicon-1##12 0 0.037fF
R17 a#2pin@74_polysilicon-1##12 a#2pin@74_polysilicon-1##13 9.912
C76 a#2pin@74_polysilicon-1##13 0 0.037fF
R18 a#2pin@74_polysilicon-1##13 a#2pin@74_polysilicon-1##14 9.912
C77 a#2pin@74_polysilicon-1##14 0 0.037fF
R19 a#2pin@74_polysilicon-1##14 a#2pin@74_polysilicon-1##15 9.912
C78 a#2pin@74_polysilicon-1##15 0 0.037fF
R20 a#2pin@74_polysilicon-1##15 a#2pin@74_polysilicon-1##16 9.912
C79 a#2pin@74_polysilicon-1##16 0 0.037fF
R21 a#2pin@74_polysilicon-1##16 a#2pin@74_polysilicon-1##17 9.912
C80 a#2pin@74_polysilicon-1##17 0 0.037fF
R22 a#2pin@74_polysilicon-1##17 a#2pin@74_polysilicon-1##18 9.912
C81 a#2pin@74_polysilicon-1##18 0 0.037fF
R23 a#2pin@74_polysilicon-1##18 a#2pin@74_polysilicon-1##19 9.912
C82 a#2pin@74_polysilicon-1##19 0 0.037fF
R24 a#2pin@74_polysilicon-1##19 a#2pin@74_polysilicon-1##20 9.912
C83 a#2pin@74_polysilicon-1##20 0 0.037fF
R25 a#2pin@74_polysilicon-1##20 a#2pin@74_polysilicon-1##21 9.912
C84 a#2pin@74_polysilicon-1##21 0 0.037fF
R26 a#2pin@74_polysilicon-1##21 a#2pin@74_polysilicon-1##22 9.912
C85 a#2pin@74_polysilicon-1##22 0 0.037fF
R27 a#2pin@74_polysilicon-1##22 a#3pin@76_polysilicon-1 9.912
R28 a#4pin@75_polysilicon-1 a#4pin@75_polysilicon-1##0 7.8
C86 a#4pin@75_polysilicon-1##0 0 0.02fF
R29 a#4pin@75_polysilicon-1##0 a#5nmos@5_poly-right 7.8
R30 a#3pin@76_polysilicon-1 a#3pin@76_polysilicon-1##0 9.75
C87 a#3pin@76_polysilicon-1##0 0 0.035fF
R31 a#3pin@76_polysilicon-1##0 a#3pin@76_polysilicon-1##1 9.75
C88 a#3pin@76_polysilicon-1##1 0 0.035fF
R32 a#3pin@76_polysilicon-1##1 a#3pin@76_polysilicon-1##2 9.75
C89 a#3pin@76_polysilicon-1##2 0 0.035fF
R33 a#3pin@76_polysilicon-1##2 a#3pin@76_polysilicon-1##3 9.75
C90 a#3pin@76_polysilicon-1##3 0 0.035fF
R34 a#3pin@76_polysilicon-1##3 a#3pin@76_polysilicon-1##4 9.75
C91 a#3pin@76_polysilicon-1##4 0 0.035fF
R35 a#3pin@76_polysilicon-1##4 a#3pin@76_polysilicon-1##5 9.75
C92 a#3pin@76_polysilicon-1##5 0 0.035fF
R36 a#3pin@76_polysilicon-1##5 a#3pin@76_polysilicon-1##6 9.75
C93 a#3pin@76_polysilicon-1##6 0 0.035fF
R37 a#3pin@76_polysilicon-1##6 a#3pin@76_polysilicon-1##7 9.75
C94 a#3pin@76_polysilicon-1##7 0 0.035fF
R38 a#3pin@76_polysilicon-1##7 a#3pin@76_polysilicon-1##8 9.75
C95 a#3pin@76_polysilicon-1##8 0 0.035fF
R39 a#3pin@76_polysilicon-1##8 a#3pin@76_polysilicon-1##9 9.75
C96 a#3pin@76_polysilicon-1##9 0 0.035fF
R40 a#3pin@76_polysilicon-1##9 a#3pin@76_polysilicon-1##10 9.75
C97 a#3pin@76_polysilicon-1##10 0 0.035fF
R41 a#3pin@76_polysilicon-1##10 a#4pin@75_polysilicon-1 9.75
R42 b#0nmos@4_poly-right b#0nmos@4_poly-right##0 7.8
C98 b#0nmos@4_poly-right##0 0 0.024fF
R43 b#0nmos@4_poly-right##0 b#0nmos@4_poly-right##1 7.8
C99 b#0nmos@4_poly-right##1 0 0.024fF
R44 b#0nmos@4_poly-right##1 b#0nmos@4_poly-right##2 7.8
C100 b#0nmos@4_poly-right##2 0 0.024fF
R45 b#0nmos@4_poly-right##2 b#1pin@77_polysilicon-1 7.8
R46 b#1pin@77_polysilicon-1 b#1pin@77_polysilicon-1##0 9.647
C101 b#1pin@77_polysilicon-1##0 0 0.035fF
R47 b#1pin@77_polysilicon-1##0 b#1pin@77_polysilicon-1##1 9.647
C102 b#1pin@77_polysilicon-1##1 0 0.035fF
R48 b#1pin@77_polysilicon-1##1 b#1pin@77_polysilicon-1##2 9.647
C103 b#1pin@77_polysilicon-1##2 0 0.035fF
R49 b#1pin@77_polysilicon-1##2 b#1pin@77_polysilicon-1##3 9.647
C104 b#1pin@77_polysilicon-1##3 0 0.035fF
R50 b#1pin@77_polysilicon-1##3 b#1pin@77_polysilicon-1##4 9.647
C105 b#1pin@77_polysilicon-1##4 0 0.035fF
R51 b#1pin@77_polysilicon-1##4 b#1pin@77_polysilicon-1##5 9.647
C106 b#1pin@77_polysilicon-1##5 0 0.035fF
R52 b#1pin@77_polysilicon-1##5 b#1pin@77_polysilicon-1##6 9.647
C107 b#1pin@77_polysilicon-1##6 0 0.035fF
R53 b#1pin@77_polysilicon-1##6 b#1pin@77_polysilicon-1##7 9.647
C108 b#1pin@77_polysilicon-1##7 0 0.035fF
R54 b#1pin@77_polysilicon-1##7 b#1pin@77_polysilicon-1##8 9.647
C109 b#1pin@77_polysilicon-1##8 0 0.035fF
R55 b#1pin@77_polysilicon-1##8 b#1pin@77_polysilicon-1##9 9.647
C110 b#1pin@77_polysilicon-1##9 0 0.035fF
R56 b#1pin@77_polysilicon-1##9 b#1pin@77_polysilicon-1##10 9.647
C111 b#1pin@77_polysilicon-1##10 0 0.035fF
R57 b#1pin@77_polysilicon-1##10 b#1pin@77_polysilicon-1##11 9.647
C112 b#1pin@77_polysilicon-1##11 0 0.035fF
R58 b#1pin@77_polysilicon-1##11 b#1pin@77_polysilicon-1##12 9.647
C113 b#1pin@77_polysilicon-1##12 0 0.035fF
R59 b#1pin@77_polysilicon-1##12 b#1pin@77_polysilicon-1##13 9.647
C114 b#1pin@77_polysilicon-1##13 0 0.035fF
R60 b#1pin@77_polysilicon-1##13 b#1pin@77_polysilicon-1##14 9.647
C115 b#1pin@77_polysilicon-1##14 0 0.035fF
R61 b#1pin@77_polysilicon-1##14 b#1pin@77_polysilicon-1##15 9.647
C116 b#1pin@77_polysilicon-1##15 0 0.035fF
R62 b#1pin@77_polysilicon-1##15 b#1pin@77_polysilicon-1##16 9.647
C117 b#1pin@77_polysilicon-1##16 0 0.035fF
R63 b#1pin@77_polysilicon-1##16 b#1pin@77_polysilicon-1##17 9.647
C118 b#1pin@77_polysilicon-1##17 0 0.035fF
R64 b#1pin@77_polysilicon-1##17 b#2pin@88_polysilicon-1 9.647
R65 b b#3contact@34_metal-1-polysilicon-1 0.307
R66 b#2pin@88_polysilicon-1 b#2pin@88_polysilicon-1##0 9.533
C119 b#2pin@88_polysilicon-1##0 0 0.035fF
R67 b#2pin@88_polysilicon-1##0 b#2pin@88_polysilicon-1##1 9.533
C120 b#2pin@88_polysilicon-1##1 0 0.035fF
R68 b#2pin@88_polysilicon-1##1 b#2pin@88_polysilicon-1##2 9.533
C121 b#2pin@88_polysilicon-1##2 0 0.035fF
R69 b#2pin@88_polysilicon-1##2 b#2pin@88_polysilicon-1##3 9.533
C122 b#2pin@88_polysilicon-1##3 0 0.035fF
R70 b#2pin@88_polysilicon-1##3 b#2pin@88_polysilicon-1##4 9.533
C123 b#2pin@88_polysilicon-1##4 0 0.035fF
R71 b#2pin@88_polysilicon-1##4 b#2pin@88_polysilicon-1##5 9.533
C124 b#2pin@88_polysilicon-1##5 0 0.035fF
R72 b#2pin@88_polysilicon-1##5 b#2pin@88_polysilicon-1##6 9.533
C125 b#2pin@88_polysilicon-1##6 0 0.035fF
R73 b#2pin@88_polysilicon-1##6 b#2pin@88_polysilicon-1##7 9.533
C126 b#2pin@88_polysilicon-1##7 0 0.035fF
R74 b#2pin@88_polysilicon-1##7 b#2pin@88_polysilicon-1##8 9.533
C127 b#2pin@88_polysilicon-1##8 0 0.035fF
R75 b#2pin@88_polysilicon-1##8 b#2pin@88_polysilicon-1##9 9.533
C128 b#2pin@88_polysilicon-1##9 0 0.035fF
R76 b#2pin@88_polysilicon-1##9 b#2pin@88_polysilicon-1##10 9.533
C129 b#2pin@88_polysilicon-1##10 0 0.035fF
R77 b#2pin@88_polysilicon-1##10 b#2pin@88_polysilicon-1##11 9.533
C130 b#2pin@88_polysilicon-1##11 0 0.035fF
R78 b#2pin@88_polysilicon-1##11 b#2pin@88_polysilicon-1##12 9.533
C131 b#2pin@88_polysilicon-1##12 0 0.035fF
R79 b#2pin@88_polysilicon-1##12 b#2pin@88_polysilicon-1##13 9.533
C132 b#2pin@88_polysilicon-1##13 0 0.035fF
R80 b#2pin@88_polysilicon-1##13 b#2pin@88_polysilicon-1##14 9.533
C133 b#2pin@88_polysilicon-1##14 0 0.035fF
R81 b#2pin@88_polysilicon-1##14 b#2pin@88_polysilicon-1##15 9.533
C134 b#2pin@88_polysilicon-1##15 0 0.035fF
R82 b#2pin@88_polysilicon-1##15 b#2pin@88_polysilicon-1##16 9.533
C135 b#2pin@88_polysilicon-1##16 0 0.035fF
R83 b#2pin@88_polysilicon-1##16 b#4pin@126_polysilicon-1 9.533
R84 b#3contact@34_metal-1-polysilicon-1 b#2pin@88_polysilicon-1 1.95
R85 net_270 net_270#1contact@39_metal-1-metal-2 1.107
R86 net_270#1contact@39_metal-1-metal-2 net_270#2contact@38_metal-1-metal-2 
+0.653
R87 a a#3pin@76_polysilicon-1 0.2
R88 net_160#2contact@45_metal-1-metal-2 net_160#3contact@30_metal-1-metal-2 
+1.467
R89 net_160#2contact@45_metal-1-metal-2 
+net_160#4contact@44_metal-1-polysilicon-1 0.6
R90 net_270#3pin@117_polysilicon-1 net_270#3pin@117_polysilicon-1##0 9.75
C136 net_270#3pin@117_polysilicon-1##0 0 0.033fF
R91 net_270#3pin@117_polysilicon-1##0 net_270#3pin@117_polysilicon-1##1 9.75
C137 net_270#3pin@117_polysilicon-1##1 0 0.033fF
R92 net_270#3pin@117_polysilicon-1##1 net_270#3pin@117_polysilicon-1##2 9.75
C138 net_270#3pin@117_polysilicon-1##2 0 0.033fF
R93 net_270#3pin@117_polysilicon-1##2 net_270#3pin@117_polysilicon-1##3 9.75
C139 net_270#3pin@117_polysilicon-1##3 0 0.033fF
R94 net_270#3pin@117_polysilicon-1##3 net_270#3pin@117_polysilicon-1##4 9.75
C140 net_270#3pin@117_polysilicon-1##4 0 0.033fF
R95 net_270#3pin@117_polysilicon-1##4 net_270#3pin@117_polysilicon-1##5 9.75
C141 net_270#3pin@117_polysilicon-1##5 0 0.033fF
R96 net_270#3pin@117_polysilicon-1##5 
+net_270#4contact@49_metal-1-polysilicon-1 9.75
R97 net_270#5contact@37_metal-1-metal-2 net_270 0.28
R98 net_270 net_270#6contact@51_metal-1-polysilicon-1 0.2
R99 net_270#7pin@101_polysilicon-1 net_270#6contact@51_metal-1-polysilicon-1 
+1.95
R100 net_270#1contact@39_metal-1-metal-2 
+net_270#4contact@49_metal-1-polysilicon-1 1.08
R101 a#0contact@12_metal-1-polysilicon-1 
+a#0contact@12_metal-1-polysilicon-1##0 9.657
C142 a#0contact@12_metal-1-polysilicon-1##0 0 0.036fF
R102 a#0contact@12_metal-1-polysilicon-1##0 
+a#0contact@12_metal-1-polysilicon-1##1 9.657
C143 a#0contact@12_metal-1-polysilicon-1##1 0 0.036fF
R103 a#0contact@12_metal-1-polysilicon-1##1 
+a#0contact@12_metal-1-polysilicon-1##2 9.657
C144 a#0contact@12_metal-1-polysilicon-1##2 0 0.036fF
R104 a#0contact@12_metal-1-polysilicon-1##2 
+a#0contact@12_metal-1-polysilicon-1##3 9.657
C145 a#0contact@12_metal-1-polysilicon-1##3 0 0.036fF
R105 a#0contact@12_metal-1-polysilicon-1##3 
+a#0contact@12_metal-1-polysilicon-1##4 9.657
C146 a#0contact@12_metal-1-polysilicon-1##4 0 0.036fF
R106 a#0contact@12_metal-1-polysilicon-1##4 
+a#0contact@12_metal-1-polysilicon-1##5 9.657
C147 a#0contact@12_metal-1-polysilicon-1##5 0 0.036fF
R107 a#0contact@12_metal-1-polysilicon-1##5 
+a#0contact@12_metal-1-polysilicon-1##6 9.657
C148 a#0contact@12_metal-1-polysilicon-1##6 0 0.036fF
R108 a#0contact@12_metal-1-polysilicon-1##6 
+a#0contact@12_metal-1-polysilicon-1##7 9.657
C149 a#0contact@12_metal-1-polysilicon-1##7 0 0.036fF
R109 a#0contact@12_metal-1-polysilicon-1##7 
+a#0contact@12_metal-1-polysilicon-1##8 9.657
C150 a#0contact@12_metal-1-polysilicon-1##8 0 0.036fF
R110 a#0contact@12_metal-1-polysilicon-1##8 
+a#0contact@12_metal-1-polysilicon-1##9 9.657
C151 a#0contact@12_metal-1-polysilicon-1##9 0 0.036fF
R111 a#0contact@12_metal-1-polysilicon-1##9 
+a#0contact@12_metal-1-polysilicon-1##10 9.657
C152 a#0contact@12_metal-1-polysilicon-1##10 0 0.036fF
R112 a#0contact@12_metal-1-polysilicon-1##10 
+a#0contact@12_metal-1-polysilicon-1##11 9.657
C153 a#0contact@12_metal-1-polysilicon-1##11 0 0.036fF
R113 a#0contact@12_metal-1-polysilicon-1##11 
+a#0contact@12_metal-1-polysilicon-1##12 9.657
C154 a#0contact@12_metal-1-polysilicon-1##12 0 0.036fF
R114 a#0contact@12_metal-1-polysilicon-1##12 
+a#0contact@12_metal-1-polysilicon-1##13 9.657
C155 a#0contact@12_metal-1-polysilicon-1##13 0 0.036fF
R115 a#0contact@12_metal-1-polysilicon-1##13 
+a#0contact@12_metal-1-polysilicon-1##14 9.657
C156 a#0contact@12_metal-1-polysilicon-1##14 0 0.036fF
R116 a#0contact@12_metal-1-polysilicon-1##14 
+a#0contact@12_metal-1-polysilicon-1##15 9.657
C157 a#0contact@12_metal-1-polysilicon-1##15 0 0.036fF
R117 a#0contact@12_metal-1-polysilicon-1##15 
+a#0contact@12_metal-1-polysilicon-1##16 9.657
C158 a#0contact@12_metal-1-polysilicon-1##16 0 0.036fF
R118 a#0contact@12_metal-1-polysilicon-1##16 
+a#0contact@12_metal-1-polysilicon-1##17 9.657
C159 a#0contact@12_metal-1-polysilicon-1##17 0 0.036fF
R119 a#0contact@12_metal-1-polysilicon-1##17 
+a#0contact@12_metal-1-polysilicon-1##18 9.657
C160 a#0contact@12_metal-1-polysilicon-1##18 0 0.036fF
R120 a#0contact@12_metal-1-polysilicon-1##18 
+a#0contact@12_metal-1-polysilicon-1##19 9.657
C161 a#0contact@12_metal-1-polysilicon-1##19 0 0.036fF
R121 a#0contact@12_metal-1-polysilicon-1##19 a#8pin@128_polysilicon-1 9.657
R122 b#5nmos@3_poly-right b#5nmos@3_poly-right##0 9.75
C162 b#5nmos@3_poly-right##0 0 0.03fF
R123 b#5nmos@3_poly-right##0 b#5nmos@3_poly-right##1 9.75
C163 b#5nmos@3_poly-right##1 0 0.03fF
R124 b#5nmos@3_poly-right##1 b#5nmos@3_poly-right##2 9.75
C164 b#5nmos@3_poly-right##2 0 0.03fF
R125 b#5nmos@3_poly-right##2 b#6pin@104_polysilicon-1 9.75
R126 b#6pin@104_polysilicon-1 b#7pin@105_polysilicon-1 7.8
R127 b#7pin@105_polysilicon-1 b#7pin@105_polysilicon-1##0 9.49
C165 b#7pin@105_polysilicon-1##0 0 0.034fF
R128 b#7pin@105_polysilicon-1##0 b#7pin@105_polysilicon-1##1 9.49
C166 b#7pin@105_polysilicon-1##1 0 0.034fF
R129 b#7pin@105_polysilicon-1##1 b#7pin@105_polysilicon-1##2 9.49
C167 b#7pin@105_polysilicon-1##2 0 0.034fF
R130 b#7pin@105_polysilicon-1##2 b#7pin@105_polysilicon-1##3 9.49
C168 b#7pin@105_polysilicon-1##3 0 0.034fF
R131 b#7pin@105_polysilicon-1##3 b#7pin@105_polysilicon-1##4 9.49
C169 b#7pin@105_polysilicon-1##4 0 0.034fF
R132 b#7pin@105_polysilicon-1##4 b#7pin@105_polysilicon-1##5 9.49