*** SPICE deck for cell BrentKungFastAdder8;9{lay} from library 
*** ProyectoIntegrador
*** Created on sáb oct 11, 2014 16:00:08
*** Last revised on sáb oct 11, 2014 16:02:45
*** Written on lun oct 13, 2014 19:13:24 by Electric VLSI Design System, 
*** version 9.05
*** Layout tech: mocmos, foundry MOSIS
*** UC SPICE *** , MIN_RESIST 0.5, MIN_CAPAC 0.5FF
***    P-Active:	areacap=1.167FF/um^2,	edgecap=0.203FF/um,	res=7.5ohms/sq
***    N-Active:	areacap=0.982FF/um^2,	edgecap=0.244FF/um,	res=6.7ohms/sq
***    
*** Polysilicon-1:	areacap=0.1467FF/um^2,	edgecap=0.0608FF/um,	res=7.8ohms/sq
***    Transistor-Poly:	areacap=0.09FF/um^2,	edgecap=0.0FF/um,	res=2.5ohms/sq
***    Poly-Cut:	areacap=0.0FF/um^2,	edgecap=0.0FF/um,	res=10.5ohms/sq
***    Active-Cut:	areacap=0.0FF/um^2,	edgecap=0.0FF/um,	res=12.2ohms/sq
***    Metal-1:	areacap=0.1209FF/um^2,	edgecap=0.1104FF/um,	res=0.08ohms/sq
***    Via1:	areacap=0.0FF/um^2,	edgecap=0.0FF/um,	res=5.69ohms/sq
***    Metal-2:	areacap=0.0843FF/um^2,	edgecap=0.0974FF/um,	res=0.08ohms/sq
***    Via2:	areacap=0.0FF/um^2,	edgecap=0.0FF/um,	res=11.39ohms/sq
***    Metal-3:	areacap=0.0843FF/um^2,	edgecap=0.0974FF/um,	res=0.08ohms/sq
***    Via3:	areacap=0.0FF/um^2,	edgecap=0.0FF/um,	res=16.73ohms/sq
***    Metal-4:	areacap=0.0843FF/um^2,	edgecap=0.0974FF/um,	res=0.08ohms/sq
***    Via4:	areacap=0.0FF/um^2,	edgecap=0.0FF/um,	res=21.44ohms/sq
***    Metal-5:	areacap=0.0843FF/um^2,	edgecap=0.0974FF/um,	res=0.07ohms/sq
***    Via5:	areacap=0.0FF/um^2,	edgecap=0.0FF/um,	res=24.08ohms/sq
***    Metal-6:	areacap=0.0423FF/um^2,	edgecap=0.1273FF/um,	res=0.03ohms/sq
***    Hi-Res:	areacap=0.0FF/um^2,	edgecap=0.0FF/um,	res=1.0ohms/sq
* Model cards are described in this file:
.include /home/lean/tfinal/trabajo/models/tsmc180nm.model

*** SUBCIRCUIT ProyectoIntegrador__id FROM CELL id{lay}
.SUBCKT ProyectoIntegrador__id 0 a vdd y
Mnmos_0 net_10 a#1 0 0 N L=0.2U W=0.4U AS=0.6P AD=0.3P PS=5.8U PD=2.2U
Mnmos_1 y#0 net_10#6 0 0 N L=0.2U W=0.4U AS=0.6P AD=0.3P PS=5.8U PD=2.2U
Mpmos_0 net_10#2 a#5 vdd vdd P L=0.2U W=0.8U AS=0.8P AD=0.3P PS=6.6U PD=2.2U
Mpmos_1 y#2 net_10#10 vdd vdd P L=0.2U W=0.8U AS=0.8P AD=0.3P PS=6.6U PD=2.2U
** Extracted Parasitic Capacitors ***
C0 net_10 0 0.649fF
C1 net_10#2 0 0.623fF
C2 y#0 0 0.546fF
C3 y#2 0 0.726fF
C4 net_10#4 0 1.495fF
C5 y 0 1.272fF
C6 a#3 0 0.66fF
C7 net_10#8 0 0.66fF
** Extracted Parasitic Resistors ***
R0 a#1 a#2 15.6
R1 a#3 a#2 181.35
R2 a#4 a#3 157.95
R3 a a#3 1.95
R4 a#5 a#4 15.6
R5 net_10#6 net_10#7 15.6
R6 net_10#8 net_10#7 181.35
R7 net_10#9 net_10#8 157.95
R8 net_10#4 net_10#8 1.95
R9 net_10#10 net_10#9 15.6
R10 y#2 y 1.507
R11 net_10#2 net_10#4 1.293
R12 net_10#4 net_10 1.347
R13 y#0 y 1.133
.ENDS ProyectoIntegrador__id

*** SUBCIRCUIT ProyectoIntegrador__xor2 FROM CELL xor2{lay}
.SUBCKT ProyectoIntegrador__xor2 0 a b vdd y
Mnmos_0 net_79 a#9 0 0 N L=0.2U W=0.4U AS=0.44P AD=0.088P PS=4.2U PD=0.85U
Mnmos_1 net_76 net_160#11 y#0 0 N L=0.2U W=0.4U AS=0.12P AD=0.088P PS=1U 
+PD=0.85U
Mnmos_2 0 net_270#10 net_76 0 N L=0.2U W=0.4U AS=0.088P AD=0.44P PS=0.85U 
+PD=4.2U
Mnmos_3 y#0 b#5 net_79 0 N L=0.2U W=0.4U AS=0.088P AD=0.12P PS=0.85U PD=1U
Mnmos_4 net_160#12 b#0 0 0 N L=0.2U W=0.4U AS=0.44P AD=0.2P PS=4.2U PD=1.8U
Mnmos_5 0 a#5 net_270#2 0 N L=0.2U W=0.4U AS=0.2P AD=0.44P PS=1.8U PD=4.2U
Mpmos_0 net_68 net_270#12 vdd vdd P L=0.2U W=0.4U AS=0.44P AD=0.088P PS=4.2U 
+PD=0.85U
Mpmos_1 y b#11 net_68 vdd P L=0.2U W=0.4U AS=0.088P AD=0.12P PS=0.85U PD=1U
Mpmos_2 net_70 net_160#5 y vdd P L=0.2U W=0.4U AS=0.12P AD=0.088P PS=1U 
+PD=0.85U
Mpmos_4 vdd a#12 net_70 vdd P L=0.2U W=0.4U AS=0.088P AD=0.44P PS=0.85U 
+PD=4.2U
Mpmos_5 vdd a#1 net_270 vdd P L=0.2U W=0.4U AS=0.2P AD=0.44P PS=1.8U PD=4.2U
Mpmos_6 net_160 b#13 vdd vdd P L=0.2U W=0.4U AS=0.44P AD=0.2P PS=4.2U PD=1.8U
** Extracted Parasitic Capacitors ***
C0 y#0 0 1.163fF
C1 y 0 1.163fF
C2 a#0 0 0.628fF
C3 net_160#12 0 0.594fF
C4 net_160 0 0.708fF
C5 a 0 1.289fF
C6 b 0 0.563fF
C7 net_270 0 1.519fF
C8 net_270#1 0 1.247fF
C9 net_160#2 0 1.373fF
C10 net_270#4 0 0.653fF
C11 b#2 0 0.691fF
C12 b#8 0 0.509fF
** Extracted Parasitic Resistors ***
R0 y y#0 2.413
R1 a#0 a 0.76
R2 a#1 a#2 15.6
R3 a#2 a#2##0 118.95
R4 a#2##0 a 118.95
R5 a#4 a#5 15.6
R6 a a#4 117
R7 b#0 b#1 31.2
R8 b#1 b#2 183.3
R9 b#2 b#4 171.6
R10 b b#2 1.95
R11 net_270 net_270#1 1.107
R12 net_270#1 net_270#2 0.653
R13 net_160#2 net_160 1.467
R14 net_160#2 net_160#4 0.6
R15 net_270#3 net_270#4 68.25
R16 net_270#7 net_270 1.95
R17 net_270#1 net_270#4 1.08
R18 a#0 a#0##0 101.4
R19 a#0##0 a#8 101.4
R20 b#5 b#6 39
R21 b#6 b#7 7.8
R22 b#7 b#8 142.35
R23 b#9 b#10 7.8
R24 b#10 b#11 54.6
R25 net_160#5 net_160#6 74.1
R26 net_160#6 net_160#7 7.8
R27 net_160#7 net_160#8 130.65
R28 net_160#9 net_160#10 7.8
R29 net_160#10 net_160#11 58.5
R30 b b#12 0.547
R31 b#8 b#9 118.95
R32 b#12 b#8 1.95
R33 net_160#8 net_160#9 91.65
R34 net_160#4 net_160#8 1.95
R35 net_160#12 net_160#2 1.16
R36 net_270#10 net_270#11 19.5
R37 net_270#11 net_270#3 31.2
R38 a#9 a#10 19.5
R39 a#10 a#11 15.6
R40 a#11 a 101.4
R41 net_270#12 net_270#13 35.1
R42 net_270#13 net_270#14 15.6
R43 net_270#14 net_270 76.05
R44 a#12 a#13 35.1
R45 a#13 a#8 15.6
R46 b#13 b#4 31.2
.ENDS ProyectoIntegrador__xor2

*** SUBCIRCUIT ProyectoIntegrador__and2 FROM CELL and2{lay}
.SUBCKT ProyectoIntegrador__and2 0 a b vdd y
Mnmos_0 net_121 b#7 net_149 0 N L=0.2U W=0.4U AS=0.088P AD=0.147P PS=0.85U 
+PD=1.267U
Mnmos_1 net_149 a#5 0 0 N L=0.2U W=0.4U AS=0.68P AD=0.088P PS=6.6U PD=0.85U
Mnmos_2 y#0 net_121#13 0 0 N L=0.2U W=0.4U AS=0.68P AD=0.3P PS=6.6U PD=2.2U
Mpmos_0 vdd b#1 net_121#2 vdd P L=0.2U W=0.4U AS=0.147P AD=0.587P PS=1.267U 
+PD=5.267U
Mpmos_1 net_121#2 a#1 vdd vdd P L=0.2U W=0.4U AS=0.587P AD=0.147P PS=5.267U 
+PD=1.267U
Mpmos_2 y#2 net_121#7 vdd vdd P L=0.2U W=0.8U AS=0.587P AD=0.3P PS=5.267U 
+PD=2.2U
** Extracted Parasitic Capacitors ***
C0 net_121 0 0.797fF
C1 net_121#2 0 0.514fF
C2 y#0 0 0.546fF
C3 y#2 0 0.726fF
C4 y 0 1.272fF
C5 net_121#3 0 2.19fF
C6 b#4 0 0.615fF
C7 a#3 0 0.518fF
** Extracted Parasitic Resistors ***
R0 a#1 a#2 15.6
R1 a#2 a#2##0 133.575
R2 a#2##0 a#3 133.575
R3 b#1 b#2 19.5
R4 b#2 b#3 15.6
R5 b#3 b#4 156
R6 b#5 b#6 7.8
R7 b#6 b#7 19.5
R8 b#4 b#5 159.9
R9 b b#4 1.95
R10 a#3 a#4 87.75
R11 a#3 a 1.95
R12 a#4 a#5 15.6
R13 net_121#2 net_121#3 1.067
R14 y#2 y 1.507
R15 y y#0 1.133
R16 net_121#7 net_121#8 15.6
R17 net_121#3 net_121 1.547
R18 net_121#11 net_121#11##0 106.275
R19 net_121#11##0 net_121#3 106.275
R20 net_121#3 net_121#8 126.75
R21 net_121#11 net_121#13 15.6
.ENDS ProyectoIntegrador__and2

*** SUBCIRCUIT ProyectoIntegrador__or2 FROM CELL or2{lay}
.SUBCKT ProyectoIntegrador__or2 0 a b vdd y
Mnmos_0 net_56#2 a#1 0 0 N L=0.2U W=0.4U AS=0.52P AD=0.147P PS=5U PD=1.267U
Mnmos_1 0 b#3 net_56#2 0 N L=0.2U W=0.4U AS=0.147P AD=0.52P PS=1.267U PD=5U
Mnmos_2 y#0 net_56#9 0 0 N L=0.2U W=0.4U AS=0.52P AD=0.3P PS=5U PD=2.2U
Mpmos_0 net_55 a#3 vdd vdd P L=0.2U W=0.4U AS=0.78P AD=0.088P PS=7U PD=0.85U
Mpmos_1 net_56 b#1 net_55 vdd P L=0.2U W=0.4U AS=0.088P AD=0.147P PS=0.85U 
+PD=1.267U
Mpmos_2 y#2 net_56#14 vdd vdd P L=0.2U W=0.8U AS=0.78P AD=0.3P PS=7U PD=2.2U
** Extracted Parasitic Capacitors ***
C0 net_56 0 0.688fF
C1 y#0 0 0.546fF
C2 y#2 0 0.726fF
C3 net_56#13 0 1.116fF
C4 y 0 1.272fF
C5 a#5 0 0.513fF
C6 net_56#6 0 0.848fF
C7 net_56#11 0 0.66fF
** Extracted Parasitic Resistors ***
R0 a#1 a#2 15.6
R1 a#3 a#4 15.6
R2 a#4 a#5 79.95
R3 b#1 b#2 19.5
R4 b#3 b#4 19.5
R5 b#2 b#5 7.8
R6 b#5 b#6 89.7
R7 b#7 b#4 15.6
R8 a#5 a#5##0 137.475
R9 a#5##0 a#2 137.475
R10 a#5 a 1.95
R11 b#6 b#6##0 113.1
R12 b#6##0 b#7 113.1
R13 b#6 b 1.95
R14 net_56#2 net_56#6 0.693
R15 net_56#9 net_56#10 15.6
R16 net_56#11 net_56#10 181.35
R17 net_56#12 net_56#11 157.95
R18 net_56#13 net_56#11 1.95
R19 y#2 y 1.507
R20 y y#0 1.133
R21 net_56#14 net_56#12 15.6
R22 net_56#6 net_56#13 0.64
R23 net_56#13 net_56 1.293
.ENDS ProyectoIntegrador__or2

*** TOP LEVEL CELL: BrentKungFastAdder8;9{lay}
Xc_cout 0 net_114 vdd cout#0 ProyectoIntegrador__id
Xc_sum0 0 net_28#2 vdd sum0#0 ProyectoIntegrador__id
Xc_sum1 0 net_34#2 vdd sum1#0 ProyectoIntegrador__id
Xc_sum2 0 net_52 vdd sum2#0 ProyectoIntegrador__id
Xc_sum3 0 net_14 vdd sum3#0 ProyectoIntegrador__id
Xc_sum4 0 net_133 vdd sum4#0 ProyectoIntegrador__id
Xc_sum5 0 net_87#2 vdd sum5#0 ProyectoIntegrador__id
Xc_sum6 0 net_148 vdd sum6#0 ProyectoIntegrador__id
Xc_sum7 0 net_152#2 vdd sum7#0 ProyectoIntegrador__id
Xc_w1 0 net_30#4 net_36#4 vdd net_28 ProyectoIntegrador__xor2
Xc_w2 0 a0#0 vdd net_30 ProyectoIntegrador__id
Xc_w3 0 b0#0 vdd net_36 ProyectoIntegrador__id
Xc_w4 0 net_24 net_9#2 vdd net_34 ProyectoIntegrador__xor2
Xc_w5 0 net_5 net_21 vdd net_24#4 ProyectoIntegrador__xor2
Xc_w6 0 a1#0 vdd net_5#4 ProyectoIntegrador__id
Xc_w7 0 b1#0 vdd net_21#4 ProyectoIntegrador__id
Xc_w8 0 net_30#2 net_36#2 vdd net_9 ProyectoIntegrador__and2
Xc_w9 0 net_48 net_42 vdd net_52#2 ProyectoIntegrador__xor2
Xc_w10 0 net_64 net_56 vdd net_48#6 ProyectoIntegrador__xor2
Xc_w11 0 a2#0 vdd net_64#4 ProyectoIntegrador__id
Xc_w12 0 b2#0 vdd net_56#4 ProyectoIntegrador__id
Xc_w13 0 net_67#2 net_59#2 vdd net_42#6 ProyectoIntegrador__or2
Xc_w14 0 net_5#2 net_21#2 vdd net_67 ProyectoIntegrador__and2
Xc_w15 0 net_24#2 net_9#4 vdd net_59 ProyectoIntegrador__and2
Xc_w16 0 net_72#4 net_62#2 vdd net_14#2 ProyectoIntegrador__xor2
Xc_w17 0 net_1#4 net_16#4 vdd net_72#2 ProyectoIntegrador__xor2
Xc_w18 0 a3#0 vdd net_1 ProyectoIntegrador__id
Xc_w19 0 b3#0 vdd net_16 ProyectoIntegrador__id
Xc_w20 0 net_39#2 net_82#2 vdd net_62 ProyectoIntegrador__or2
Xc_w21 0 net_64#2 net_56#2 vdd net_39 ProyectoIntegrador__and2
Xc_w22 0 net_48#2 net_42#2 vdd net_82 ProyectoIntegrador__and2
Xc_w23 0 net_99#4 net_124#4 vdd net_133#2 ProyectoIntegrador__xor2
Xc_w24 0 net_78 net_84 vdd net_99 ProyectoIntegrador__xor2
Xc_w25 0 a4#0 vdd net_78#4 ProyectoIntegrador__id
Xc_w26 0 b4#0 vdd net_84#4 ProyectoIntegrador__id
Xc_w27 0 net_129#2 net_111 vdd net_124 ProyectoIntegrador__or2
Xc_w28 0 net_70#5 net_89 vdd net_129 ProyectoIntegrador__or2
Xc_w29 0 net_1#2 net_16#2 vdd net_70#2 ProyectoIntegrador__and2
Xc_w30 0 net_72#6 net_39#4 vdd net_89#2 ProyectoIntegrador__and2
Xc_w31 0 net_76 net_42#4 vdd net_111#2 ProyectoIntegrador__and2
Xc_w32 0 net_72 net_48#4 vdd net_76#2 ProyectoIntegrador__and2
Xc_w33 0 net_138#2 net_103 vdd net_87 ProyectoIntegrador__xor2
Xc_w34 0 net_91 net_135#2 vdd net_138#4 ProyectoIntegrador__xor2
Xc_w35 0 a5#0 vdd net_91#4 ProyectoIntegrador__id
Xc_w36 0 b5#0 vdd net_135 ProyectoIntegrador__id
Xc_w37 0 net_121 net_144 vdd net_103#2 ProyectoIntegrador__or2
Xc_w38 0 net_78#2 net_84#2 vdd net_121#4 ProyectoIntegrador__and2
Xc_w39 0 net_99#2 net_124#2 vdd net_144#2 ProyectoIntegrador__and2
Xc_w40 0 net_185#6 net_172#2 vdd net_148#2 ProyectoIntegrador__xor2
Xc_w41 0 net_164#4 net_175#4 vdd net_185 ProyectoIntegrador__xor2
Xc_w42 0 a6#0 vdd net_164 ProyectoIntegrador__id
Xc_w43 0 b6#0 vdd net_175 ProyectoIntegrador__id
Xc_w44 0 net_116#4 net_106#2 vdd net_172#4 ProyectoIntegrador__or2
Xc_w45 0 net_119#2 net_142#2 vdd net_116 ProyectoIntegrador__or2
Xc_w46 0 net_91#2 net_135#4 vdd net_119 ProyectoIntegrador__and2
Xc_w47 0 net_138 net_121#2 vdd net_142 ProyectoIntegrador__and2
Xc_w48 0 net_108#4 net_124#8 vdd net_106 ProyectoIntegrador__and2
Xc_w49 0 net_138#6 net_99#6 vdd net_108 ProyectoIntegrador__and2
Xc_w50 0 net_189#6 net_183#2 vdd net_152 ProyectoIntegrador__xor2
Xc_w51 0 net_157#2 net_167#2 vdd net_189 ProyectoIntegrador__xor2
Xc_w52 0 a7#0 vdd net_157 ProyectoIntegrador__id
Xc_w53 0 b7#0 vdd net_167 ProyectoIntegrador__id
Xc_w54 0 net_154#4 net_162#2 vdd net_183 ProyectoIntegrador__or2
Xc_w55 0 net_164#2 net_175#2 vdd net_154 ProyectoIntegrador__and2
Xc_w56 0 net_185#4 net_172 vdd net_162 ProyectoIntegrador__and2
Xc_w57 0 net_170#2 net_95#2 vdd net_114#2 ProyectoIntegrador__or2
Xc_w58 0 net_150#2 net_160#2 vdd net_170 ProyectoIntegrador__or2
Xc_w59 0 net_181#2 net_146#2 vdd net_150 ProyectoIntegrador__or2
Xc_w60 0 net_157#4 net_167#4 vdd net_181 ProyectoIntegrador__and2
Xc_w61 0 net_189#4 net_154#2 vdd net_146 ProyectoIntegrador__and2
Xc_w62 0 net_178#4 net_116#2 vdd net_160 ProyectoIntegrador__and2
Xc_w63 0 net_189#2 net_185#2 vdd net_178 ProyectoIntegrador__and2
Xc_w64 0 net_97#2 net_124#6 vdd net_95 ProyectoIntegrador__and2
Xc_w65 0 net_178#2 net_108#2 vdd net_97 ProyectoIntegrador__and2
** Extracted Parasitic Capacitors ***
C0 net_114 0 1.304fF
C1 cout#0 0 1.073fF
C2 net_28#2 0 1.018fF
C3 sum0#0 0 0.93fF
C4 net_34#2 0 1.161fF
C5 sum1#0 0 0.787fF
C6 net_52 0 1.018fF
C7 sum2#0 0 0.787fF
C8 net_14 0 1.018fF
C9 sum3#0 0 0.787fF
C10 net_133 0 1.282fF
C11 sum4#0 0 0.93fF
C12 net_87#2 0 1.733fF
C13 sum5#0 0 1.502fF
C14 net_148 0 0.875fF
C15 sum6#0 0 0.941fF
C16 net_152#2 0 1.018fF
C17 sum7#0 0 0.941fF
C18 net_30#4 0 0.842fF
C19 net_36#4 0 1.161fF
C20 net_28 0 1.502fF
C21 a0#0 0 0.875fF
C22 net_30 0 0.93fF
C23 b0#0 0 0.875fF
C24 net_36 0 1.073fF
C25 net_24 0 0.842fF
C26 net_9#2 0 0.875fF
C27 net_34 0 1.645fF
C28 net_5 0 0.699fF
C29 net_21 0 1.018fF
C30 net_24#4 0 1.502fF
C31 a1#0 0 1.018fF
C32 net_5#4 0 0.787fF
C33 b1#0 0 1.161fF
C34 net_21#4 0 0.93fF
C35 net_30#2 0 0.754fF
C36 net_36#2 0 1.161fF
C37 net_9 0 0.787fF
C38 net_48 0 0.842fF
C39 net_42 0 0.875fF
C40 net_52#2 0 1.502fF
C41 net_64 0 1.128fF
C42 net_56 0 1.161fF
C43 net_48#6 0 1.502fF
C44 a2#0 0 1.161fF
C45 net_64#4 0 1.216fF
C46 b2#0 0 1.018fF
C47 net_56#4 0 1.073fF
C48 net_67#2 0 1.568fF
C49 net_59#2 0 1.337fF
C50 net_42#6 0 0.787fF
C51 net_5#2 0 0.611fF
C52 net_21#2 0 1.018fF
C53 net_67 0 1.37fF
C54 net_24#2 0 0.754fF
C55 net_9#4 0 0.875fF
C56 net_59 0 1.513fF
C57 net_72#4 0 1.172fF
C58 net_62#2 0 1.282fF
C59 net_14#2 0 1.502fF
C60 net_1#4 0 0.699fF
C61 net_16#4 0 1.018fF
C62 net_72#2 0 0.512fF
C63 a3#0 0 0.875fF
C64 net_1 0 0.787fF
C65 b3#0 0 1.018fF
C66 net_16 0 0.93fF
C67 net_39#2 0 1.139fF
C68 net_82#2 0 1.909fF
C69 net_62 0 1.216fF
C70 net_64#2 0 1.04fF
C71 net_56#2 0 1.161fF
C72 net_39 0 0.787fF
C73 net_48#2 0 0.754fF
C74 net_42#2 0 0.875fF
C75 net_82 0 1.645fF
C76 net_99#4 0 0.842fF
C77 net_124#4 0 1.447fF
C78 net_133#2 0 2.074fF
C79 net_78 0 1.414fF
C80 net_84 0 1.733fF
C81 net_99 0 1.37fF
C82 a4#0 0 1.161fF
C83 net_78#4 0 1.502fF
C84 b4#0 0 1.304fF
C85 net_84#4 0 1.645fF
C86 net_129#2 0 1.711fF
C87 net_111 0 1.337fF
C88 net_124 0 1.359fF
C89 net_70#5 0 1.711fF
C90 net_89 0 1.051fF
C91 net_129 0 1.359fF
C92 net_1#2 0 0.611fF
C93 net_16#2 0 1.018fF
C94 net_70#2 0 1.227fF
C95 net_72#6 0 1.326fF
C96 net_39#4 0 0.875fF
C97 net_89#2 0 2.085fF
C98 net_76 0 1.326fF
C99 net_42#4 0 0.875fF
C100 net_111#2 0 1.799fF
C101 net_72 0 1.326fF
C102 net_48#4 0 1.018fF
C103 net_76#2 0 1.502fF
C104 net_138#2 0 1.315fF
C105 net_103 0 1.854fF
C106 net_87 0 2.217fF
C107 net_91 0 0.699fF
C108 net_135#2 0 1.59fF
C109 net_138#4 0 2.217fF
C110 a5#0 0 1.161fF
C111 net_91#4 0 0.787fF
C112 b5#0 0 0.875fF
C113 net_135 0 1.502fF
C114 net_121 0 1.568fF
C115 net_144 0 2.195fF
C116 net_103#2 0 0.93fF
C117 net_78#2 0 1.326fF
C118 net_84#2 0 1.733fF
C119 net_121#4 0 1.656fF
C120 net_99#2 0 0.754fF
C121 net_124#2 0 1.447fF
C122 net_144#2 0 1.931fF
C123 net_185#6 0 1.557fF
C124 net_172#2 0 1.304fF
C125 net_148#2 0 1.359fF
C126 net_164#4 0 0.985fF
C127 net_175#4 0 1.304fF
C128 net_185 0 2.217fF
C129 a6#0 0 0.853fF
C130 net_164 0 1.073fF
C131 b6#0 0 0.853fF
C132 net_175 0 1.216fF
C133 net_116#4 0 1.568fF
C134 net_106#2 0 1.337fF
C135 net_172#4 0 1.513fF
C136 net_119#2 0 1.568fF
C137 net_142#2 0 2.052fF
C138 net_116 0 1.216fF
C139 net_91#2 0 0.611fF
C140 net_135#4 0 1.59fF
C141 net_119 0 1.216fF
C142 net_138 0 1.469fF
C143 net_121#2 0 1.304fF
C144 net_142 0 1.788fF
C145 net_108#4 0 0.897fF
C146 net_124#8 0 1.447fF
C147 net_106 0 1.073fF
C148 net_138#6 0 1.469fF
C149 net_99#6 0 1.018fF
C150 net_108 0 1.073fF
C151 net_189#6 0 1.7fF
C152 net_183#2 0 1.733fF
C153 net_152 0 1.502fF
C154 net_157#2 0 0.842fF
C155 net_167#2 0 1.161fF
C156 net_189 0 2.36fF
C157 a7#0 0 0.853fF
C158 net_157 0 0.93fF
C159 b7#0 0 0.853fF
C160 net_167 0 1.073fF
C161 net_154#4 0 1.282fF
C162 net_162#2 0 1.337fF
C163 net_183 0 1.645fF
C164 net_164#2 0 0.897fF
C165 net_175#2 0 1.304fF
C166 net_154 0 0.93fF
C167 net_185#4 0 1.469fF
C168 net_172 0 1.304fF
C169 net_162 0 1.073fF
C170 net_170#2 0 1.161fF
C171 net_95#2 0 1.194fF
C172 net_114#2 0 1.216fF
C173 net_150#2 0 1.282fF
C174 net_160#2 0 1.337fF
C175 net_170 0 1.216fF
C176 net_181#2 0 1.854fF
C177 net_146#2 0 1.051fF
C178 net_150 0 0.93fF
C179 net_157#4 0 0.754fF
C180 net_167#4 0 1.161fF
C181 net_181 0 1.502fF
C182 net_189#4 0 1.612fF
C183 net_154#2 0 1.018fF
C184 net_146 0 0.787fF
C185 net_178#4 0 1.546fF
C186 net_116#2 0 1.304fF
C187 net_160 0 1.656fF
C188 net_189#2 0 1.612fF
C189 net_185#2 0 1.733fF
C190 net_178 0 1.359fF
C191 net_97#2 0 0.754fF
C192 net_124#6 0 1.447fF
C193 net_95 0 0.93fF
C194 net_178#2 0 1.546fF
C195 net_108#2 0 1.161fF
C196 net_97 0 0.93fF
C197 sum3 0 0.787fF
C198 net_1#1 0 1.507fF
C199 net_1#3 0 2.05fF
C200 net_1#5 0 1.419fF
C201 a3 0 0.875fF
C202 net_5#1 0 1.419fF
C203 net_5#3 0 2.77fF
C204 net_5#5 0 2.226fF
C205 sum1 0 0.787fF
C206 net_9#1 0 2.792fF
C207 net_9#3 0 3.343fF
C208 net_9#5 0 1.338fF
C209 b0 0 0.875fF
C210 a0 0 0.875fF
C211 net_14#1 0 1.841fF
C212 net_14#3 0 2.325fF
C213 net_16#1 0 1.238fF
C214 net_16#3 0 2.303fF
C215 net_16#5 0 1.995fF
C216 b3 0 1.018fF
C217 a1 0 1.018fF
C218 net_21#1 0 1.481fF
C219 net_21#3 0 2.303fF
C220 net_21#5 0 1.753fF
C221 net_24#1 0 1.562fF
C222 net_24#3 0 2.913fF
C223 net_24#5 0 2.942fF
C224 sum0 0 0.93fF
C225 net_28#1 0 2.016fF
C226 net_28#3 0 1.532fF
C227 net_30#1 0 1.65fF
C228 net_30#3 0 2.193fF
C229 net_30#5 0 1.562fF
C230 b1 0 1.161fF
C231 net_34#1 0 2.776fF
C232 net_34#3 0 2.292fF
C233 net_36#1 0 1.381fF
C234 net_36#3 0 2.446fF
C235 net_36#5 0 2.138fF
C236 net_39#1 0 2.831fF
C237 net_39#3 0 3.697fF
C238 net_39#5 0 1.389fF
C239 net_42#1 0 1.852fF
C240 net_42#3 0 2.469fF
C241 net_42#5 0 1.8fF
C242 net_42#7 0 1.095fF
C243 sum2 0 5.135fF
C244 sum2#1 0 5.922fF
C245 b2#1 0 3.171fF
C246 b2 0 2.153fF
C247 net_48#1 0 1.562fF
C248 net_48#3 0 3.209fF
C249 net_48#5 0 3.37fF
C250 net_48#7 0 2.119fF
C251 net_52#1 0 1.532fF
C252 net_52#3 0 2.016fF
C253 sum4 0 4.826fF
C254 sum4#1 0 5.756fF
C255 a2#1 0 2.594fF
C256 a2 0 1.433fF
C257 net_56#1 0 2.138fF
C258 net_56#3 0 2.446fF
C259 net_56#5 0 1.381fF
C260 net_59#1 0 4.675fF
C261 net_59#3 0 4.499fF
C262 a4 0 4.004fF
C263 a4#1 0 5.165fF
C264 net_62#1 0 2.63fF
C265 net_64#1 0 1.848fF
C266 net_64#3 0 2.48fF
C267 net_64#5 0 1.936fF
C268 net_67#1 0 2.681fF
C269 net_67#3 0 2.879fF
C270 b4 0 3.695fF
C271 b4#1 0 4.999fF
C272 net_70#1 0 9.565fF
C273 net_70#3 0 10.077fF
C274 net_72#1 0 2.586fF
C275 net_72#3 0 2.902fF
C276 net_72#5 0 3.601fF
C277 net_72#7 0 2.624fF
C278 net_76#1 0 2.136fF
C279 net_76#3 0 2.312fF
C280 net_78#1 0 2.134fF
C281 net_78#3 0 2.766fF
C282 net_78#5 0 2.222fF
C283 sum5 0 2.05fF
C284 sum5#1 0 3.552fF
C285 net_82#1 0 6.864fF
C286 net_82#3 0 7.128fF
C287 net_84#1 0 2.71fF
C288 net_84#3 0 3.019fF
C289 net_84#5 0 1.954fF
C290 net_87#1 0 3.04fF
C291 net_87#3 0 2.556fF
C292 net_89#1 0 8.634fF
C293 net_89#3 0 9.669fF
C294 net_91#1 0 1.419fF
C295 net_91#3 0 2.256fF
C296 net_91#5 0 1.712fF
C297 b5 0 1.639fF
C298 b5#1 0 2.514fF
C299 net_95#1 0 4.195fF
C300 net_95#3 0 4.459fF
C301 net_97#1 0 2.095fF
C302 net_99#1 0 4.429fF
C303 net_99#3 0 4.533fF
C304 net_99#5 0 2.384fF
C305 net_99#7 0 1.841fF
C306 net_103#1 0 2.872fF
C307 cout#1 0 1.992fF
C308 cout 0 0.919fF
C309 net_106#1 0 1.381fF
C310 net_106#3 0 1.646fF
C311 net_108#1 0 1.381fF
C312 net_108#3 0 3.822fF
C313 net_108#5 0 3.249fF
C314 net_111#1 0 3.406fF
C315 net_111#3 0 3.869fF
C316 a5 0 3.387fF
C317 a5#1 0 4.548fF
C318 net_114#1 0 2.217fF
C319 net_114#3 0 2.129fF
C320 net_116#1 0 1.524fF
C321 net_116#3 0 2.744fF
C322 net_116#5 0 2.699fF
C323 net_119#1 0 6.435fF
C324 net_119#3 0 6.787fF
C325 net_121#1 0 2.275fF
C326 net_121#3 0 3.656fF
C327 net_121#5 0 3.301fF
C328 net_124#1 0 1.668fF
C329 net_124#3 0 2.732fF
C330 net_124#5 0 4.121fF
C331 net_124#7 0 4.982fF
C332 net_124#9 0 3.285fF
C333 net_129#1 0 3.482fF
C334 net_70#4 0 5.852fF
C335 net_70#6 0 5.407fF
C336 net_133#1 0 2.799fF
C337 net_133#3 0 3.591fF
C338 net_135#1 0 2.17fF
C339 net_135#3 0 2.721fF
C340 net_135#5 0 2.053fF
C341 net_138#1 0 4.297fF
C342 net_138#5 0 7.847fF
C343 net_138#7 0 5.762fF
C344 net_142#1 0 9.063fF
C345 net_142#3 0 9.327fF
C346 net_144#1 0 7.401fF
C347 net_144#3 0 7.137fF
C348 net_146#1 0 3.64fF
C349 net_146#3 0 3.904fF
C350 net_148#1 0 7.559fF
C351 net_148#3 0 8.043fF
C352 net_150#1 0 1.932fF
C353 net_150#3 0 2.285fF
C354 net_152#1 0 2.325fF
C355 net_152#3 0 1.841fF
C356 net_154#1 0 4.735fF
C357 net_154#3 0 5.529fF
C358 net_154#5 0 1.989fF
C359 net_157#1 0 2.472fF
C360 net_157#3 0 3.104fF
C361 net_157#5 0 1.474fF
C362 net_160#1 0 3.52fF
C363 net_160#3 0 3.201fF
C364 net_162#1 0 3.425fF
C365 net_162#3 0 3.689fF
C366 net_164#1 0 2.513fF
C367 net_164#3 0 3.056fF
C368 net_164#5 0 1.705fF
C369 net_167#1 0 1.741fF
C370 net_167#3 0 2.806fF
C371 net_167#5 0 2.138fF
C372 net_170#1 0 1.589fF
C373 net_170#3 0 1.534fF
C374 net_172#1 0 1.767fF
C375 net_172#3 0 5.25fF
C376 net_172#5 0 4.996fF
C377 net_175#1 0 2.039fF
C378 net_175#3 0 2.589fF
C379 net_175#5 0 1.767fF
C380 net_178#1 0 2.76fF
C381 net_178#3 0 4.785fF
C382 net_178#5 0 3.384fF
C383 net_181#1 0 9.6fF
C384 net_181#3 0 9.952fF
C385 net_183#1 0 2.404fF
C386 net_183#3 0 2.492fF
C387 net_185#1 0 3.04fF
C388 net_185#3 0 3.276fF
C389 net_185#5 0 2.909fF
C390 net_185#7 0 2.277fF
C391 net_189#1 0 6.371fF
C392 net_189#3 0 7.679fF
C393 net_189#5 0 4.993fF
C394 net_189#7 0 3.024fF
C395 sum7 0 0.941fF
C396 b6 0 0.853fF
C397 a6 0 0.853fF
C398 b7 0 0.853fF
C399 a7 0 0.853fF
C400 sum6 0 0.941fF
C401 net_70 0 2.872fF
** Extracted Parasitic Resistors ***
R0 sum3#0 sum3 1.907
R1 net_1 net_1#1 1.907
R2 net_1#2 net_1#3 1.48
R3 net_1#4 net_1#5 1.693
R4 a3#0 a3 2.12
R5 net_5 net_5#1 1.693
R6 net_5#2 net_5#3 1.48
R7 net_5#4 net_5#5 1.907
R8 sum1#0 sum1 1.907
R9 net_9 net_9#1 1.907
R10 net_9#2 net_9#3 2.12
R11 net_9#4 net_9#5 2.12
R12 b0#0 b0 2.12
R13 a0#0 a0 2.12
R14 net_14 net_14#1 2.467
R15 net_14#2 net_14#3 3.64
R16 net_16 net_16#1 2.253
R17 net_16#2 net_16#3 2.467
R18 net_16#4 net_16#5 2.467
R19 b3#0 b3 2.467
R20 a1#0 a1 2.467
R21 net_21 net_21#1 2.467
R22 net_21#2 net_21#3 2.467
R23 net_21#4 net_21#5 2.253
R24 net_24 net_24#1 2.04
R25 net_24#2 net_24#3 1.827
R26 net_24#4 net_24#5 3.64
R27 sum0#0 sum0 2.253
R28 net_28 net_28#1 3.64
R29 net_28#2 net_28#3 2.467
R30 net_30 net_30#1 2.253
R31 net_30#2 net_30#3 1.827
R32 net_30#4 net_30#5 2.04
R33 b1#0 b1 2.813
R34 net_34 net_34#1 3.987
R35 net_34#2 net_34#3 2.813
R36 net_36 net_36#1 2.6
R37 net_36#2 net_36#3 2.813
R38 net_36#4 net_36#5 2.813
R39 net_39 net_39#1 1.907
R40 net_39#2 net_39#3 2.76
R41 net_39#4 net_39#5 2.12
R42 net_42 net_42#1 2.12
R43 net_42#2 net_42#3 2.12
R44 net_42#4 net_42#5 2.12
R45 net_42#6 net_42#7 1.907
R46 sum2#0 sum2#1 1.907
R47 b2#0 b2#1 2.467
R48 net_48 net_48#1 2.04
R49 net_48#2 net_48#3 1.827
R50 net_48#4 net_48#5 2.467
R51 net_48#6 net_48#7 3.64
R52 net_52 net_52#1 2.467
R53 net_52#2 net_52#3 3.64
R54 sum4#0 sum4#1 2.253
R55 a2#0 a2#1 2.813
R56 net_56 net_56#1 2.813
R57 net_56#2 net_56#3 2.813
R58 net_56#4 net_56#5 2.6
R59 net_59 net_59#1 3.667
R60 net_59#2 net_59#3 3.24
R61 a4#0 a4#1 2.813
R62 net_62 net_62#1 2.947
R63 net_62#2 net_62#1 3.107
R64 net_64 net_64#1 2.733
R65 net_64#2 net_64#3 2.52
R66 net_64#4 net_64#5 2.947
R67 net_67 net_67#1 3.32
R68 net_67#2 net_67#3 3.8
R69 b4#0 b4#1 3.16
R70 net_70 net_70#1 1.733
R71 net_70#2 net_70#3 2.973
R72 net_72 net_72#1 3.213
R73 net_72#2 net_72#3 1.24
R74 net_72#4 net_72#5 2.84
R75 net_72#6 net_72#7 3.213
R76 net_76 net_76#1 3.213
R77 net_76#2 net_76#3 3.64
R78 net_78 net_78#1 3.427
R79 net_78#2 net_78#3 3.213
R80 net_78#4 net_78#5 3.64
R81 sum5#0 sum5#1 3.64
R82 net_82 net_82#1 3.987
R83 net_82#2 net_82#3 4.627
R84 net_84 net_84#1 4.2
R85 net_84#2 net_84#3 4.2
R86 net_84#4 net_84#5 3.987
R87 net_87 net_87#1 5.373
R88 net_87#2 net_87#3 4.2
R89 net_89 net_89#1 2.547
R90 net_89#2 net_89#3 5.053
R91 net_91 net_91#1 1.693
R92 net_91#2 net_91#3 1.48
R93 net_91#4 net_91#5 1.907
R94 b5#0 b5#1 2.12
R95 net_95 net_95#1 2.253
R96 net_95#2 net_95#3 2.893
R97 net_97 net_97#1 2.253
R98 net_97#2 net_97#1 1.827
R99 net_99 net_99#1 3.32
R100 net_99#2 net_99#3 1.827
R101 net_99#4 net_99#5 2.04
R102 net_99#6 net_99#7 2.467
R103 net_103 net_103#1 4.493
R104 net_103#2 net_103#1 2.253
R105 cout#0 cout#1 2.6
R106 net_106 net_106#1 2.6
R107 net_106#2 net_106#3 3.24
R108 net_108 net_108#1 2.6
R109 net_108#2 net_108#3 2.813
R110 net_108#4 net_108#5 2.173
R111 net_111 net_111#1 3.24
R112 net_111#2 net_111#3 4.36
R113 a5#0 a5#1 2.813
R114 net_114 net_114#1 3.16
R115 net_114#2 net_114#3 2.947
R116 net_116 net_116#1 2.947
R117 net_116#2 net_116#3 3.16
R118 net_116#4 net_116#5 3.8
R119 net_119 net_119#1 2.947
R120 net_119#2 net_119#3 3.8
R121 net_121 net_121#1 3.8
R122 net_121#2 net_121#3 3.16
R123 net_121#4 net_121#5 4.013
R124 net_124 net_124#1 3.293
R125 net_124#2 net_124#3 3.507
R126 net_124#4 net_124#5 3.507
R127 net_124#6 net_124#7 3.507
R128 net_124#8 net_124#9 3.507
R129 net_129 net_129#1 3.293
R130 net_129#2 net_129#1 4.147
R131 net_70 net_70#4 5.227
R132 net_70#5 net_70#6 4.147
R133 net_133 net_133#1 3.107
R134 net_133#2 net_133#3 5.027
R135 net_135 net_135#1 3.64
R136 net_135#2 net_135#3 3.853
R137 net_135#4 net_135#5 3.853
R138 net_138 net_138#1 3.56
R139 net_138#2 net_138#1 3.187
R140 net_138#4 net_138#5 5.373
R141 net_138#6 net_138#7 3.56
R142 net_142 net_142#1 4.333
R143 net_142#2 net_142#3 4.973
R144 net_144 net_144#1 5.32
R145 net_144#2 net_144#3 4.68
R146 net_146 net_146#1 1.907
R147 net_146#2 net_146#3 2.547
R148 net_148 net_148#1 2.12
R149 net_148#2 net_148#3 3.293
R150 net_150 net_150#1 2.253
R151 net_150#2 net_150#3 3.107
R152 net_152 net_152#1 3.64
R153 net_152#2 net_152#3 2.467
R154 net_154 net_154#1 2.253
R155 net_154#2 net_154#3 2.467
R156 net_154#4 net_154#5 3.107
R157 net_157 net_157#1 2.253
R158 net_157#2 net_157#3 2.04
R159 net_157#4 net_157#5 1.827
R160 net_160 net_160#1 4.013
R161 net_160#2 net_160#3 3.24
R162 net_162 net_162#1 2.6
R163 net_162#2 net_162#3 3.24
R164 net_164 net_164#1 2.6
R165 net_164#2 net_164#3 2.173
R166 net_164#4 net_164#5 2.387
R167 net_167 net_167#1 2.6
R168 net_167#2 net_167#3 2.813
R169 net_167#4 net_167#5 2.813
R170 net_170 net_170#1 2.947
R171 net_170#2 net_170#3 2.813
R172 net_172 net_172#1 3.16
R173 net_172#2 net_172#3 3.16
R174 net_172#4 net_172#5 3.667
R175 net_175 net_175#1 2.947
R176 net_175#2 net_175#3 3.16
R177 net_175#4 net_175#5 3.16
R178 net_178 net_178#1 3.293
R179 net_178#2 net_178#3 3.747
R180 net_178#4 net_178#5 3.747
R181 net_181 net_181#1 3.64
R182 net_181#2 net_181#3 4.493
R183 net_183 net_183#1 3.987
R184 net_183#2 net_183#3 4.2
R185 net_185 net_185#1 5.373
R186 net_185#2 net_185#3 4.2
R187 net_185#4 net_185#5 3.56
R188 net_185#6 net_185#7 3.773
R189 net_189 net_189#1 5.72
R190 net_189#2 net_189#3 3.907
R191 net_189#4 net_189#5 3.907
R192 net_189#6 net_189#7 4.12
R193 sum7#0 sum7 2.28
R194 b6#0 b6 2.067
R195 a6#0 a6 2.067
R196 b7#0 b7 2.067
R197 a7#0 a7 2.067
R198 sum6#0 sum6 2.28
R199 net_1#1 net_1#3 1.493
R200 net_1#3 net_1#5 1.493
R201 net_5#1 net_5#3 1.493
R202 net_5#3 net_5#5 2.987
R203 net_9#1 net_9#3 4.16
R204 net_9#3 net_9#5 0.96
R205 net_14#1 net_14#3 1.707
R206 net_16#1 net_16#3 0.64
R207 net_16#3 net_16#5 2.027
R208 net_21#1 net_21#3 0.96
R209 net_21#3 net_21#5 1.707
R210 net_24#1 net_24#3 1.493
R211 net_24#3 net_24#5 2.987
R212 net_28#1 net_28#3 1.067
R213 net_30#1 net_30#3 1.493
R214 net_30#3 net_30#5 1.493
R215 net_34#1 net_34#3 2.347
R216 net_36#1 net_36#3 0.64
R217 net_36#3 net_36#5 2.027
R218 net_39#1 net_39#3 4.24
R219 net_39#3 net_39#5 1.067
R220 net_42#1 net_42#3 2.027
R221 net_42#3 net_42#5 1.28
R222 net_42#5 net_42#7 0.64
R223 sum2 sum2#1 10.653
R224 b2#1 b2 4.467
R225 net_48#1 net_48#3 1.493
R226 net_48#3 net_48#5 3.6
R227 net_48#5 net_48#7 1.28
R228 net_52#1 net_52#3 1.067
R229 sum4 sum4#1 10.013
R230 a2#1 a2 2.973
R231 net_56#1 net_56#3 2.027
R232 net_56#3 net_56#5 0.64
R233 net_59#1 net_59#3 6.56
R234 a4 a4#1 8.307
R235 net_64#1 net_64#3 1.493
R236 net_64#3 net_64#5 1.493
R237 net_67#1 net_67#3 2.72
R238 b4 b4#1 7.667
R239 net_70#1 net_70#3 18.36
R240 net_72#1 net_72#3 2.613
R241 net_72#3 net_72#5 2.347
R242 net_72#5 net_72#7 2.693
R243 net_76#1 net_76#3 1.68
R244 net_78#1 net_78#3 1.493
R245 net_78#3 net_78#5 1.493
R246 sum5 sum5#1 4.253
R247 net_82#1 net_82#3 10.827
R248 net_84#1 net_84#3 2.027
R249 net_84#3 net_84#5 0.64
R250 net_87#1 net_87#3 1.707
R251 net_89#1 net_89#3 15.733
R252 net_91#1 net_91#3 1.493
R253 net_91#3 net_91#5 1.92
R254 b5 b5#1 3.4
R255 net_95#1 net_95#3 6.773
R256 net_99#1 net_99#3 6.347
R257 net_99#3 net_99#5 1.493
R258 net_99#5 net_99#7 1.707
R259 cout#1 cout 1.907
R260 net_106#1 net_106#3 0.64
R261 net_108#1 net_108#3 0.64
R262 net_108#3 net_108#5 4.88
R263 net_111#1 net_111#3 4.293
R264 a5 a5#1 7.027
R265 net_114#1 net_114#3 1.893
R266 net_116#1 net_116#3 0.64
R267 net_116#3 net_116#5 2.347
R268 net_119#1 net_119#3 10.827
R269 net_121#1 net_121#3 1.467
R270 net_121#3 net_121#5 3.413
R271 net_124#1 net_124#3 0.64
R272 net_124#3 net_124#5 2.027
R273 net_124#5 net_124#7 3.52
R274 net_124#7 net_124#9 3.813
R275 net_70#4 net_70#6 7.667
R276 net_133#1 net_133#3 3.147
R277 net_135#1 net_135#3 1.387
R278 net_135#3 net_135#5 0.96
R279 net_138#1 net_138#5 2.773
R280 net_138#5 net_138#7 8.907
R281 net_142#1 net_142#3 15.093
R282 net_144#1 net_144#3 10.8
R283 net_146#1 net_146#3 5.92
R284 net_148#1 net_148#3 13.867
R285 net_150#1 net_150#3 2.08
R286 net_152#1 net_152#3 1.707
R287 net_154#1 net_154#3 7.893
R288 net_154#3 net_154#5 1.467
R289 net_157#1 net_157#3 3.2
R290 net_157#3 net_157#5 1.493
R291 net_160#1 net_160#3 3.867
R292 net_162#1 net_162#3 4.88
R293 net_164#1 net_164#3 2.987
R294 net_164#3 net_164#5 1.493
R295 net_167#1 net_167#3 1.387
R296 net_167#3 net_167#5 2.027
R297 net_170#1 net_170#3 0.773
R298 net_172#1 net_172#3 0.96
R299 net_172#3 net_172#5 7.227
R300 net_175#1 net_175#3 1.707
R301 net_175#3 net_175#5 0.96