*** SPICE deck for cell BrentKungFastAdder8{lay} from library 
*** ProyectoIntegrador
*** Created on lun oct 13, 2014 17:25:51
*** Last revised on lun oct 13, 2014 17:25:51
*** Written on lun oct 13, 2014 18:02:53 by Electric VLSI Design System, 
*** version 9.05
*** Layout tech: mocmos, foundry MOSIS
*** UC SPICE *** , MIN_RESIST 0.5, MIN_CAPAC 0.5FF
***    P-Active:	areacap=1.167FF/um^2,	edgecap=0.203FF/um,	res=7.5ohms/sq
***    N-Active:	areacap=0.982FF/um^2,	edgecap=0.244FF/um,	res=6.7ohms/sq
***    
*** Polysilicon-1:	areacap=0.1467FF/um^2,	edgecap=0.0608FF/um,	res=7.8ohms/sq
***    Transistor-Poly:	areacap=0.09FF/um^2,	edgecap=0.0FF/um,	res=2.5ohms/sq
***    Poly-Cut:	areacap=0.0FF/um^2,	edgecap=0.0FF/um,	res=10.5ohms/sq
***    Active-Cut:	areacap=0.0FF/um^2,	edgecap=0.0FF/um,	res=12.2ohms/sq
***    Metal-1:	areacap=0.1209FF/um^2,	edgecap=0.1104FF/um,	res=0.08ohms/sq
***    Via1:	areacap=0.0FF/um^2,	edgecap=0.0FF/um,	res=5.69ohms/sq
***    Metal-2:	areacap=0.0843FF/um^2,	edgecap=0.0974FF/um,	res=0.08ohms/sq
***    Via2:	areacap=0.0FF/um^2,	edgecap=0.0FF/um,	res=11.39ohms/sq
***    Metal-3:	areacap=0.0843FF/um^2,	edgecap=0.0974FF/um,	res=0.08ohms/sq
***    Via3:	areacap=0.0FF/um^2,	edgecap=0.0FF/um,	res=16.73ohms/sq
***    Metal-4:	areacap=0.0843FF/um^2,	edgecap=0.0974FF/um,	res=0.08ohms/sq
***    Via4:	areacap=0.0FF/um^2,	edgecap=0.0FF/um,	res=21.44ohms/sq
***    Metal-5:	areacap=0.0843FF/um^2,	edgecap=0.0974FF/um,	res=0.07ohms/sq
***    Via5:	areacap=0.0FF/um^2,	edgecap=0.0FF/um,	res=24.08ohms/sq
***    Metal-6:	areacap=0.0423FF/um^2,	edgecap=0.1273FF/um,	res=0.03ohms/sq
***    Hi-Res:	areacap=0.0FF/um^2,	edgecap=0.0FF/um,	res=1.0ohms/sq
* Model cards are described in this file:
.include /home/lean/tfinal/trabajo/models/tsmc180nm.model

*** SUBCIRCUIT ProyectoIntegrador__id FROM CELL id{lay}
.SUBCKT ProyectoIntegrador__id vss a vdd y
Mnmos_0 net_10 a#1 0 0 N L=0.2U W=0.4U AS=0.6P AD=0.3P PS=5.8U PD=2.2U
Mnmos_1 y#0 net_10#6 0 0 N L=0.2U W=0.4U AS=0.6P AD=0.3P PS=5.8U PD=2.2U
Mpmos_0 net_10#2 a#5 vdd vdd P L=0.2U W=0.8U AS=0.8P AD=0.3P PS=6.6U PD=2.2U
Mpmos_1 y#2 net_10#10 vdd vdd P L=0.2U W=0.8U AS=0.8P AD=0.3P PS=6.6U PD=2.2U
** Extracted Parasitic Capacitors ***
C0 net_10 0 0.649fF
C1 net_10#2 0 0.623fF
C2 y#0 0 0.546fF
C3 y#2 0 0.726fF
C4 net_10#4 0 1.495fF
C5 y 0 1.272fF
C6 a#3 0 0.66fF
C7 net_10#8 0 0.66fF
** Extracted Parasitic Resistors ***
R0 a#1 a#2 15.6
R1 a#3 a#2 181.35
R2 a#4 a#3 157.95
R3 a a#3 1.95
R4 a#5 a#4 15.6
R5 net_10#6 net_10#7 15.6
R6 net_10#8 net_10#7 181.35
R7 net_10#9 net_10#8 157.95
R8 net_10#4 net_10#8 1.95
R9 net_10#10 net_10#9 15.6
R10 y#2 y 1.507
R11 net_10#2 net_10#4 1.293
R12 net_10#4 net_10 1.347
R13 y#0 y 1.133
.ENDS ProyectoIntegrador__id

*** SUBCIRCUIT ProyectoIntegrador__xor2 FROM CELL xor2{lay}
.SUBCKT ProyectoIntegrador__xor2 0 a b vdd y
Mnmos_0 net_79 a#9 0 0 N L=0.2U W=0.4U AS=0.44P AD=0.088P PS=4.2U PD=0.85U
Mnmos_1 net_76 net_160#11 y#0 0 N L=0.2U W=0.4U AS=0.12P AD=0.088P PS=1U 
+PD=0.85U
Mnmos_2 0 net_270#10 net_76 0 N L=0.2U W=0.4U AS=0.088P AD=0.44P PS=0.85U 
+PD=4.2U
Mnmos_3 y#0 b#5 net_79 0 N L=0.2U W=0.4U AS=0.088P AD=0.12P PS=0.85U PD=1U
Mnmos_4 net_160#12 b#0 0 0 N L=0.2U W=0.4U AS=0.44P AD=0.2P PS=4.2U PD=1.8U
Mnmos_5 0 a#5 net_270#2 0 N L=0.2U W=0.4U AS=0.2P AD=0.44P PS=1.8U PD=4.2U
Mpmos_0 net_68 net_270#12 vdd vdd P L=0.2U W=0.4U AS=0.44P AD=0.088P PS=4.2U 
+PD=0.85U
Mpmos_1 y b#11 net_68 vdd P L=0.2U W=0.4U AS=0.088P AD=0.12P PS=0.85U PD=1U
Mpmos_2 net_70 net_160#5 y vdd P L=0.2U W=0.4U AS=0.12P AD=0.088P PS=1U 
+PD=0.85U
Mpmos_4 vdd a#12 net_70 vdd P L=0.2U W=0.4U AS=0.088P AD=0.44P PS=0.85U 
+PD=4.2U
Mpmos_5 vdd a#1 net_270 vdd P L=0.2U W=0.4U AS=0.2P AD=0.44P PS=1.8U PD=4.2U
Mpmos_6 net_160 b#13 vdd vdd P L=0.2U W=0.4U AS=0.44P AD=0.2P PS=4.2U PD=1.8U
** Extracted Parasitic Capacitors ***
C0 y#0 0 1.163fF
C1 y 0 1.163fF
C2 a#0 0 0.628fF
C3 net_160#12 0 0.594fF
C4 net_160 0 0.708fF
C5 a 0 1.289fF
C6 b 0 0.563fF
C7 net_270 0 1.519fF
C8 net_270#1 0 1.247fF
C9 net_160#2 0 1.373fF
C10 net_270#4 0 0.653fF
C11 b#2 0 0.691fF
C12 b#8 0 0.509fF
** Extracted Parasitic Resistors ***
R0 y y#0 2.413
R1 a#0 a 0.76
R2 a#1 a#2 15.6
R3 a#2 a#2##0 118.95
R4 a#2##0 a 118.95
R5 a#4 a#5 15.6
R6 a a#4 117
R7 b#0 b#1 31.2
R8 b#1 b#2 183.3
R9 b#2 b#4 171.6
R10 b b#2 1.95
R11 net_270 net_270#1 1.107
R12 net_270#1 net_270#2 0.653
R13 net_160#2 net_160 1.467
R14 net_160#2 net_160#4 0.6
R15 net_270#3 net_270#4 68.25
R16 net_270#7 net_270 1.95
R17 net_270#1 net_270#4 1.08
R18 a#0 a#0##0 101.4
R19 a#0##0 a#8 101.4
R20 b#5 b#6 39
R21 b#6 b#7 7.8
R22 b#7 b#8 142.35
R23 b#9 b#10 7.8
R24 b#10 b#11 54.6
R25 net_160#5 net_160#6 74.1
R26 net_160#6 net_160#7 7.8
R27 net_160#7 net_160#8 130.65
R28 net_160#9 net_160#10 7.8
R29 net_160#10 net_160#11 58.5
R30 b b#12 0.547
R31 b#8 b#9 118.95
R32 b#12 b#8 1.95
R33 net_160#8 net_160#9 91.65
R34 net_160#4 net_160#8 1.95
R35 net_160#12 net_160#2 1.16
R36 net_270#10 net_270#11 19.5
R37 net_270#11 net_270#3 31.2
R38 a#9 a#10 19.5
R39 a#10 a#11 15.6
R40 a#11 a 101.4
R41 net_270#12 net_270#13 35.1
R42 net_270#13 net_270#14 15.6
R43 net_270#14 net_270 76.05
R44 a#12 a#13 35.1
R45 a#13 a#8 15.6
R46 b#13 b#4 31.2
.ENDS ProyectoIntegrador__xor2

*** SUBCIRCUIT ProyectoIntegrador__and2 FROM CELL and2{lay}
.SUBCKT ProyectoIntegrador__and2 0 a b vdd y
Mnmos_0 net_121 b#7 net_149 0 N L=0.2U W=0.4U AS=0.088P AD=0.147P PS=0.85U 
+PD=1.267U
Mnmos_1 net_149 a#5 0 0 N L=0.2U W=0.4U AS=0.68P AD=0.088P PS=6.6U PD=0.85U
Mnmos_2 y#0 net_121#13 0 0 N L=0.2U W=0.4U AS=0.68P AD=0.3P PS=6.6U PD=2.2U
Mpmos_0 vdd b#1 net_121#2 vdd P L=0.2U W=0.4U AS=0.147P AD=0.587P PS=1.267U 
+PD=5.267U
Mpmos_1 net_121#2 a#1 vdd vdd P L=0.2U W=0.4U AS=0.587P AD=0.147P PS=5.267U 
+PD=1.267U
Mpmos_2 y#2 net_121#7 vdd vdd P L=0.2U W=0.8U AS=0.587P AD=0.3P PS=5.267U 
+PD=2.2U
** Extracted Parasitic Capacitors ***
C0 net_121 0 0.797fF
C1 net_121#2 0 0.514fF
C2 y#0 0 0.546fF
C3 y#2 0 0.726fF
C4 y 0 1.272fF
C5 net_121#3 0 2.19fF
C6 b#4 0 0.615fF
C7 a#3 0 0.518fF
** Extracted Parasitic Resistors ***
R0 a#1 a#2 15.6
R1 a#2 a#2##0 133.575
R2 a#2##0 a#3 133.575
R3 b#1 b#2 19.5
R4 b#2 b#3 15.6
R5 b#3 b#4 156
R6 b#5 b#6 7.8
R7 b#6 b#7 19.5
R8 b#4 b#5 159.9
R9 b b#4 1.95
R10 a#3 a#4 87.75
R11 a#3 a 1.95
R12 a#4 a#5 15.6
R13 net_121#2 net_121#3 1.067
R14 y#2 y 1.507
R15 y y#0 1.133
R16 net_121#7 net_121#8 15.6
R17 net_121#3 net_121 1.547
R18 net_121#11 net_121#11##0 106.275
R19 net_121#11##0 net_121#3 106.275
R20 net_121#3 net_121#8 126.75
R21 net_121#11 net_121#13 15.6
.ENDS ProyectoIntegrador__and2

*** SUBCIRCUIT ProyectoIntegrador__or2 FROM CELL or2{lay}
.SUBCKT ProyectoIntegrador__or2 0 a b vdd y
Mnmos_0 net_56#2 a#1 0 0 N L=0.2U W=0.4U AS=0.52P AD=0.147P PS=5U PD=1.267U
Mnmos_1 0 b#3 net_56#2 0 N L=0.2U W=0.4U AS=0.147P AD=0.52P PS=1.267U PD=5U
Mnmos_2 y#0 net_56#9 0 0 N L=0.2U W=0.4U AS=0.52P AD=0.3P PS=5U PD=2.2U
Mpmos_0 net_55 a#3 vdd vdd P L=0.2U W=0.4U AS=0.78P AD=0.088P PS=7U PD=0.85U
Mpmos_1 net_56 b#1 net_55 vdd P L=0.2U W=0.4U AS=0.088P AD=0.147P PS=0.85U 
+PD=1.267U
Mpmos_2 y#2 net_56#14 vdd vdd P L=0.2U W=0.8U AS=0.78P AD=0.3P PS=7U PD=2.2U
** Extracted Parasitic Capacitors ***
C0 net_56 0 0.688fF
C1 y#0 0 0.546fF
C2 y#2 0 0.726fF
C3 net_56#13 0 1.116fF
C4 y 0 1.272fF
C5 a#5 0 0.513fF
C6 net_56#6 0 0.848fF
C7 net_56#11 0 0.66fF
** Extracted Parasitic Resistors ***
R0 a#1 a#2 15.6
R1 a#3 a#4 15.6
R2 a#4 a#5 79.95
R3 b#1 b#2 19.5
R4 b#3 b#4 19.5
R5 b#2 b#5 7.8
R6 b#5 b#6 89.7
R7 b#7 b#4 15.6
R8 a#5 a#5##0 137.475
R9 a#5##0 a#2 137.475
R10 a#5 a 1.95
R11 b#6 b#6##0 113.1
R12 b#6##0 b#7 113.1
R13 b#6 b 1.95
R14 net_56#2 net_56#6 0.693
R15 net_56#9 net_56#10 15.6
R16 net_56#11 net_56#10 181.35
R17 net_56#12 net_56#11 157.95
R18 net_56#13 net_56#11 1.95
R19 y#2 y 1.507
R20 y y#0 1.133
R21 net_56#14 net_56#12 15.6
R22 net_56#6 net_56#13 0.64
R23 net_56#13 net_56 1.293
.ENDS ProyectoIntegrador__or2

*** TOP LEVEL CELL: BrentKungFastAdder8{lay}
Xc_cout 0 net_44 vdd cout#0 ProyectoIntegrador__id
Xc_sum0 0 net_94#2 vdd sum0#0 ProyectoIntegrador__id
Xc_sum1 0 net_152 vdd sum1#0 ProyectoIntegrador__id
Xc_sum2 0 net_127 vdd sum2#0 ProyectoIntegrador__id
Xc_sum3 0 net_104 vdd sum3#0 ProyectoIntegrador__id
Xc_sum4 0 net_25 vdd sum4#0 ProyectoIntegrador__id
Xc_sum5 0 net_13 vdd sum5#0 ProyectoIntegrador__id
Xc_sum6 0 net_110#2 vdd sum6#0 ProyectoIntegrador__id
Xc_sum7 0 net_100#2 vdd sum7#0 ProyectoIntegrador__id
Xc_w1 0 net_98 net_106 vdd net_94 ProyectoIntegrador__xor2
Xc_w4 0 net_161#2 net_154 vdd net_152#2 ProyectoIntegrador__xor2
Xc_w5 0 net_157#2 net_164#2 vdd net_161 ProyectoIntegrador__xor2
Xc_w8 0 net_98#2 net_106#2 vdd net_154#4 ProyectoIntegrador__and2
Xc_w9 0 net_133#2 net_148#6 vdd net_127#2 ProyectoIntegrador__xor2
Xc_w10 0 net_131 net_139 vdd net_133#6 ProyectoIntegrador__xor2
Xc_w13 0 net_143#2 net_166#2 vdd net_148 ProyectoIntegrador__or2
Xc_w14 0 net_157 net_164 vdd net_143 ProyectoIntegrador__and2
Xc_w15 0 net_161#4 net_154#2 vdd net_166 ProyectoIntegrador__and2
Xc_w16 0 net_88#2 net_129#2 vdd net_104#2 ProyectoIntegrador__xor2
Xc_w17 0 net_58 net_46 vdd net_88 ProyectoIntegrador__xor2
Xc_w20 0 net_124#2 net_159#2 vdd net_129 ProyectoIntegrador__or2
Xc_w21 0 net_131#2 net_139#2 vdd net_124 ProyectoIntegrador__and2
Xc_w22 0 net_133 net_148#4 vdd net_159 ProyectoIntegrador__and2
Xc_w23 0 net_6#6 net_37#6 vdd net_25#2 ProyectoIntegrador__xor2
Xc_w24 0 net_27#2 net_17#2 vdd net_6 ProyectoIntegrador__xor2
Xc_w27 0 net_64#2 net_86#2 vdd net_37#8 ProyectoIntegrador__or2
Xc_w28 0 net_74#2 net_66#2 vdd net_64 ProyectoIntegrador__or2
Xc_w29 0 net_58#2 net_46#2 vdd net_74 ProyectoIntegrador__and2
Xc_w30 0 net_88#7 net_124#4 vdd net_66#5 ProyectoIntegrador__and2
Xc_w31 0 net_141 net_148#2 vdd net_86#5 ProyectoIntegrador__and2
Xc_w32 0 net_88#4 net_133#4 vdd net_141#2 ProyectoIntegrador__and2
Xc_w33 0 net_21#2 net_19 vdd net_13#2 ProyectoIntegrador__xor2
Xc_w34 0 net_3 net_15 vdd net_21 ProyectoIntegrador__xor2
Xc_w37 0 net_10 net_0 vdd net_19#2 ProyectoIntegrador__or2
Xc_w38 0 net_27 net_17 vdd net_10#4 ProyectoIntegrador__and2
Xc_w39 0 net_6#4 net_37#2 vdd net_0#2 ProyectoIntegrador__and2
Xc_w40 0 net_48#4 net_32#2 vdd net_110 ProyectoIntegrador__xor2
Xc_w41 0 net_35#2 net_52#2 vdd net_48 ProyectoIntegrador__xor2
Xc_w44 0 net_29 net_54 vdd net_32#4 ProyectoIntegrador__or2
Xc_w45 0 net_62#2 net_60#2 vdd net_29#4 ProyectoIntegrador__or2
Xc_w46 0 net_3#2 net_15#2 vdd net_62 ProyectoIntegrador__and2
Xc_w47 0 net_21#4 net_10#2 vdd net_60 ProyectoIntegrador__and2
Xc_w48 0 net_71#4 net_37#4 vdd net_54#2 ProyectoIntegrador__and2
Xc_w49 0 net_21#6 net_6#2 vdd net_71 ProyectoIntegrador__and2
Xc_w50 0 net_116#6 net_78#2 vdd net_100 ProyectoIntegrador__xor2
Xc_w51 0 net_120#2 net_102#2 vdd net_116 ProyectoIntegrador__xor2
Xc_w54 0 net_90#4 net_80#2 vdd net_78 ProyectoIntegrador__or2
Xc_w55 0 net_35 net_52 vdd net_90 ProyectoIntegrador__and2
Xc_w56 0 net_48#2 net_32 vdd net_80 ProyectoIntegrador__and2
Xc_w57 0 net_108#2 net_42 vdd net_44#2 ProyectoIntegrador__or2
Xc_w58 0 net_82 net_114 vdd net_108 ProyectoIntegrador__or2
Xc_w59 0 net_112 net_122 vdd net_82#2 ProyectoIntegrador__or2
Xc_w60 0 net_120 net_102 vdd net_112#2 ProyectoIntegrador__and2
Xc_w61 0 net_116#2 net_90#2 vdd net_122#2 ProyectoIntegrador__and2
Xc_w62 0 net_68#4 net_29#2 vdd net_114#2 ProyectoIntegrador__and2
Xc_w63 0 net_116#4 net_48#6 vdd net_68 ProyectoIntegrador__and2
Xc_w64 0 net_56 net_37 vdd net_42#2 ProyectoIntegrador__and2
Xc_w65 0 net_68#2 net_71#2 vdd net_56#2 ProyectoIntegrador__and2
** Extracted Parasitic Capacitors ***
C0 net_44 0 1.018fF
C1 cout#0 0 2.074fF
C2 net_94#2 0 1.447fF
C3 sum0#0 0 1.502fF
C4 net_152 0 1.304fF
C5 sum1#0 0 0.941fF
C6 net_127 0 0.875fF
C7 sum2#0 0 0.941fF
C8 net_104 0 1.733fF
C9 sum3#0 0 1.359fF
C10 net_25 0 1.447fF
C11 sum4#0 0 0.787fF
C12 net_13 0 1.018fF
C13 sum5#0 0 0.787fF
C14 net_110#2 0 1.876fF
C15 sum6#0 0 0.787fF
C16 net_100#2 0 1.59fF
C17 sum7#0 0 1.359fF
C18 net_98 0 1.414fF
C19 net_106 0 1.733fF
C20 net_94 0 1.931fF
C21 net_161#2 0 1.414fF
C22 net_154 0 1.447fF
C23 net_152#2 0 1.788fF
C24 net_157#2 0 1.271fF
C25 net_164#2 0 1.59fF
C26 net_161 0 2.074fF
C27 net_98#2 0 1.326fF
C28 net_106#2 0 1.733fF
C29 net_154#4 0 1.227fF
C30 net_133#2 0 0.842fF
C31 net_148#6 0 1.304fF
C32 net_127#2 0 1.359fF
C33 net_131 0 0.842fF
C34 net_139 0 1.161fF
C35 net_133#6 0 1.502fF
C36 net_143#2 0 1.425fF
C37 net_166#2 0 1.909fF
C38 net_148 0 1.216fF
C39 net_157 0 1.183fF
C40 net_164 0 1.59fF
C41 net_143 0 1.073fF
C42 net_161#4 0 1.326fF
C43 net_154#2 0 1.447fF
C44 net_166 0 1.645fF
C45 net_88#2 0 2.586fF
C46 net_129#2 0 1.568fF
C47 net_104#2 0 2.217fF
C48 net_58 0 0.985fF
C49 net_46 0 1.018fF
C50 net_88 0 1.37fF
C51 net_124#2 0 1.139fF
C52 net_159#2 0 1.766fF
C53 net_129 0 0.93fF
C54 net_131#2 0 0.754fF
C55 net_139#2 0 1.161fF
C56 net_124 0 0.787fF
C57 net_133 0 0.754fF
C58 net_148#4 0 1.304fF
C59 net_159 0 1.502fF
C60 net_6#6 0 0.842fF
C61 net_37#6 0 1.997fF
C62 net_25#2 0 1.931fF
C63 net_27#2 0 1.414fF
C64 net_17#2 0 1.161fF
C65 net_6 0 1.502fF
C66 net_64#2 0 1.854fF
C67 net_86#2 0 1.821fF
C68 net_37#8 0 0.93fF
C69 net_74#2 0 0.732fF
C70 net_66#2 0 1.249fF
C71 net_64 0 1.513fF
C72 net_58#2 0 0.897fF
C73 net_46#2 0 1.018fF
C74 net_74 0 1.931fF
C75 net_88#7 0 1.546fF
C76 net_124#4 0 1.711fF
C77 net_66#5 0 0.93fF
C78 net_141 0 0.897fF
C79 net_148#2 0 1.304fF
C80 net_86#5 0 0.93fF
C81 net_88#4 0 1.04fF
C82 net_133#4 0 1.018fF
C83 net_141#2 0 1.073fF
C84 net_21#2 0 1.128fF
C85 net_19 0 1.161fF
C86 net_13#2 0 1.502fF
C87 net_3 0 0.699fF
C88 net_15 0 1.018fF
C89 net_21 0 1.788fF
C90 net_10 0 1.282fF
C91 net_0 0 1.051fF
C92 net_19#2 0 1.073fF
C93 net_27 0 1.326fF
C94 net_17 0 1.161fF
C95 net_10#4 0 0.93fF
C96 net_6#4 0 0.754fF
C97 net_37#2 0 1.997fF
C98 net_0#2 0 0.787fF
C99 net_48#4 0 0.842fF
C100 net_32#2 0 0.875fF
C101 net_110 0 0.798fF
C102 net_35#2 0 0.699fF
C103 net_52#2 0 1.018fF
C104 net_48 0 1.502fF
C105 net_29 0 1.139fF
C106 net_54 0 1.337fF
C107 net_32#4 0 0.787fF
C108 net_62#2 0 1.711fF
C109 net_60#2 0 1.48fF
C110 net_29#4 0 0.787fF
C111 net_3#2 0 0.611fF
C112 net_15#2 0 1.018fF
C113 net_62 0 1.656fF
C114 net_21#4 0 1.04fF
C115 net_10#2 0 1.018fF
C116 net_60 0 1.799fF
C117 net_71#4 0 1.612fF
C118 net_37#4 0 1.018fF
C119 net_54#2 0 1.073fF
C120 net_21#6 0 1.04fF
C121 net_6#2 0 1.018fF
C122 net_71 0 1.227fF
C123 net_116#6 0 1.986fF
C124 net_78#2 0 0.875fF
C125 net_100 0 2.074fF
C126 net_120#2 0 1.986fF
C127 net_102#2 0 1.59fF
C128 net_116 0 2.647fF
C129 net_90#4 0 1.568fF
C130 net_80#2 0 1.051fF
C131 net_78 0 0.787fF
C132 net_35 0 0.611fF
C133 net_52 0 1.018fF
C134 net_90 0 1.942fF
C135 net_48#2 0 0.754fF
C136 net_32 0 0.875fF
C137 net_80 0 2.371fF
C138 net_108#2 0 1.161fF
C139 net_42 0 1.194fF
C140 net_44#2 0 0.93fF
C141 net_82 0 1.139fF
C142 net_114 0 2.195fF
C143 net_108 0 1.645fF
C144 net_112 0 2.14fF
C145 net_122 0 2.482fF
C146 net_82#2 0 0.787fF
C147 net_120 0 1.898fF
C148 net_102 0 1.59fF
C149 net_112#2 0 1.788fF
C150 net_116#2 0 1.898fF
C151 net_90#2 0 1.304fF
C152 net_122#2 0 2.217fF
C153 net_68#4 0 1.469fF
C154 net_29#2 0 0.875fF
C155 net_114#2 0 1.227fF
C156 net_116#4 0 1.26fF
C157 net_48#6 0 1.018fF
C158 net_68 0 1.645fF
C159 net_56 0 0.897fF
C160 net_37 0 1.018fF
C161 net_42#2 0 0.93fF
C162 net_68#2 0 1.546fF
C163 net_71#2 0 1.139fF
C164 net_56#2 0 1.942fF
C165 net_0#1 0 5.254fF
C166 net_0#3 0 4.99fF
C167 sum5 0 0.787fF
C168 net_3#1 0 1.419fF
C169 net_3#3 0 1.331fF
C170 sum4 0 0.787fF
C171 net_6#1 0 2.119fF
C172 net_6#3 0 2.766fF
C173 net_6#5 0 2.605fF
C174 net_6#7 0 1.562fF
C175 net_10#1 0 1.989fF
C176 net_10#3 0 2.65fF
C177 net_10#5 0 1.855fF
C178 net_13#1 0 1.841fF
C179 net_13#3 0 2.325fF
C180 net_15#1 0 1.481fF
C181 net_15#3 0 1.481fF
C182 net_17#1 0 2.138fF
C183 net_17#3 0 2.138fF
C184 net_19#1 0 1.919fF
C185 net_19#3 0 1.831fF
C186 net_21#1 0 3.536fF
C187 net_21#3 0 4.2fF
C188 net_21#5 0 4.42fF
C189 net_21#7 0 3.096fF
C190 net_25#1 0 9.558fF
C191 net_25#3 0 10.042fF
C192 net_27#1 0 2.046fF
C193 net_27#3 0 2.134fF
C194 net_29#1 0 2.27fF
C195 net_29#3 0 2.314fF
C196 net_29#5 0 1.095fF
C197 net_32#1 0 1.338fF
C198 net_32#3 0 5.798fF
C199 net_32#5 0 5.247fF
C200 net_35#1 0 1.331fF
C201 net_35#3 0 1.419fF
C202 net_37#1 0 1.751fF
C203 net_37#3 0 3.218fF
C204 net_37#5 0 1.995fF
C205 net_37#7 0 3.527fF
C206 net_37#9 0 1.971fF
C207 net_42#1 0 1.502fF
C208 net_42#3 0 1.238fF
C209 net_44#1 0 2.359fF
C210 net_46#1 0 1.995fF
C211 net_46#3 0 1.995fF
C212 net_48#1 0 2.428fF
C213 net_48#3 0 2.399fF
C214 net_48#5 0 2.179fF
C215 net_48#7 0 1.635fF
C216 net_52#1 0 1.481fF
C217 net_52#3 0 1.481fF
C218 net_54#1 0 1.646fF
C219 net_54#3 0 1.381fF
C220 net_56#1 0 1.218fF
C221 net_56#3 0 2.264fF
C222 net_58#1 0 1.705fF
C223 net_58#3 0 1.617fF
C224 net_60#1 0 6.491fF
C225 net_60#3 0 6.172fF
C226 net_62#1 0 9.008fF
C227 net_62#3 0 9.063fF
C228 net_64#1 0 2.194fF
C229 net_64#3 0 2.535fF
C230 net_66#1 0 9.592fF
C231 net_66#3 0 9.983fF
C232 net_68#1 0 5.141fF
C233 net_68#3 0 6.97fF
C234 net_68#5 0 3.397fF
C235 net_71#1 0 1.535fF
C236 net_71#3 0 2.656fF
C237 net_71#5 0 2.82fF
C238 net_74#1 0 6.044fF
C239 net_74#3 0 4.845fF
C240 cout#1 0 6.862fF
C241 cout 0 4.788fF
C242 sum6#1 0 5.421fF
C243 sum6 0 4.634fF
C244 net_78#1 0 1.455fF
C245 net_78#3 0 1.543fF
C246 net_80#1 0 4.299fF
C247 net_80#3 0 2.979fF
C248 net_82#1 0 2.142fF
C249 net_82#3 0 1.789fF
C250 net_66#4 0 12.493fF
C251 net_66#6 0 10.551fF
C252 net_86#1 0 9.934fF
C253 net_86#3 0 11.326fF
C254 net_88#1 0 5.856fF
C255 net_88#3 0 5.614fF
C256 net_90#1 0 4.693fF
C257 net_90#3 0 4.569fF
C258 net_90#5 0 2.082fF
C259 sum3#1 0 3.319fF
C260 sum3 0 1.96fF
C261 net_94#1 0 3.062fF
C262 net_94#3 0 2.578fF
C263 sum7 0 5.405fF
C264 sum7#1 0 6.764fF
C265 sum0#1 0 3.771fF
C266 sum0 0 2.269fF
C267 net_98#1 0 2.134fF
C268 net_98#3 0 2.046fF
C269 net_100#1 0 2.588fF
C270 net_100#3 0 2.104fF
C271 net_102#1 0 2.567fF
C272 net_102#3 0 2.567fF
C273 net_104#1 0 2.556fF
C274 net_104#3 0 3.04fF
C275 net_106#1 0 2.196fF
C276 net_106#3 0 2.196fF
C277 net_108#1 0 7.095fF
C278 net_108#3 0 6.611fF
C279 net_110#1 0 3.638fF
C280 net_110#3 0 4.717fF
C281 net_112#1 0 3.156fF
C282 net_112#3 0 2.804fF
C283 net_114#1 0 9.985fF
C284 net_114#3 0 9.016fF
C285 net_116#1 0 3.161fF
C286 net_116#3 0 3.055fF
C287 net_116#5 0 2.584fF
C288 net_116#7 0 2.668fF
C289 net_120#1 0 2.618fF
C290 net_120#3 0 2.706fF
C291 net_122#1 0 4.834fF
C292 net_122#3 0 4.57fF
C293 net_124#1 0 1.802fF
C294 net_124#3 0 4.225fF
C295 net_127#1 0 6.62fF
C296 net_127#3 0 7.105fF
C297 net_129#1 0 2.696fF
C298 net_131#1 0 1.562fF
C299 net_131#3 0 1.474fF
C300 net_133#1 0 1.474fF
C301 net_133#3 0 2.179fF
C302 net_133#5 0 2.252fF
C303 net_133#7 0 2.119fF
C304 net_86#4 0 6.818fF
C305 net_86#6 0 5.448fF
C306 net_139#1 0 2.138fF
C307 net_139#3 0 2.138fF
C308 net_141#1 0 2.542fF
C309 net_141#3 0 2.718fF
C310 net_143#1 0 4.351fF
C311 net_143#3 0 4.703fF
C312 net_88#5 0 2.441fF
C313 net_88#6 0 3.579fF
C314 net_88#8 0 2.266fF
C315 net_148#1 0 2.129fF
C316 net_148#3 0 2.834fF
C317 net_148#5 0 2.384fF
C318 net_148#7 0 1.767fF
C319 net_152#1 0 3.258fF
C320 net_152#3 0 3.742fF
C321 net_154#1 0 2.424fF
C322 net_154#3 0 5.869fF
C323 net_154#5 0 4.672fF
C324 net_157#1 0 1.903fF
C325 net_157#3 0 1.991fF
C326 net_159#1 0 5.294fF
C327 net_159#3 0 5.558fF
C328 net_161#1 0 3.103fF
C329 net_161#3 0 3.162fF
C330 net_161#5 0 2.046fF
C331 net_164#1 0 2.053fF
C332 net_164#3 0 2.053fF
C333 net_166#1 0 2.558fF
C334 net_166#3 0 2.822fF
C335 sum1 0 0.941fF
C336 sum2 0 0.941fF
C337 net_66 0 3.731fF
C338 net_86 0 2.729fF
** Extracted Parasitic Resistors ***
R0 net_0 net_0#1 2.547
R1 net_0#2 net_0#3 1.907
R2 sum5#0 sum5 1.907
R3 net_3 net_3#1 1.693
R4 net_3#2 net_3#3 1.48
R5 sum4#0 sum4 1.907
R6 net_6 net_6#1 3.64
R7 net_6#2 net_6#3 2.467
R8 net_6#4 net_6#5 1.827
R9 net_6#6 net_6#7 2.04
R10 net_10 net_10#1 3.107
R11 net_10#2 net_10#3 2.467
R12 net_10#4 net_10#5 2.253
R13 net_13 net_13#1 2.467
R14 net_13#2 net_13#3 3.64
R15 net_15 net_15#1 2.467
R16 net_15#2 net_15#3 2.467
R17 net_17 net_17#1 2.813
R18 net_17#2 net_17#3 2.813
R19 net_19 net_19#1 2.813
R20 net_19#2 net_19#3 2.6
R21 net_21 net_21#1 4.333
R22 net_21#2 net_21#3 2.733
R23 net_21#4 net_21#5 2.52
R24 net_21#6 net_21#7 2.52
R25 net_25 net_25#1 3.507
R26 net_25#2 net_25#3 4.68
R27 net_27 net_27#1 3.213
R28 net_27#2 net_27#3 3.427
R29 net_29 net_29#1 2.76
R30 net_29#2 net_29#3 2.12
R31 net_29#4 net_29#5 1.907
R32 net_32 net_32#1 2.12
R33 net_32#2 net_32#3 2.12
R34 net_32#4 net_32#5 1.907
R35 net_35 net_35#1 1.48
R36 net_35#2 net_35#3 1.693
R37 net_37 net_37#1 2.467
R38 net_37#2 net_37#3 4.84
R39 net_37#4 net_37#5 2.467
R40 net_37#6 net_37#7 4.84
R41 net_37#8 net_37#9 2.253
R42 net_42 net_42#1 2.893
R43 net_42#2 net_42#3 2.253
R44 net_44 net_44#1 2.467
R45 net_44#2 net_44#1 2.253
R46 net_46 net_46#1 2.467
R47 net_46#2 net_46#3 2.467
R48 net_48 net_48#1 3.64
R49 net_48#2 net_48#3 1.827
R50 net_48#4 net_48#5 2.04
R51 net_48#6 net_48#7 2.467
R52 net_52 net_52#1 2.467
R53 net_52#2 net_52#3 2.467
R54 net_54 net_54#1 3.24
R55 net_54#2 net_54#3 2.6
R56 net_56 net_56#1 2.173
R57 net_56#2 net_56#3 4.707
R58 net_58 net_58#1 2.387
R59 net_58#2 net_58#3 2.173
R60 net_60 net_60#1 4.36
R61 net_60#2 net_60#3 3.587
R62 net_62 net_62#1 4.013
R63 net_62#2 net_62#3 4.147
R64 net_64 net_64#1 3.667
R65 net_64#2 net_64#3 4.493
R66 net_66 net_66#1 2.08
R67 net_66#2 net_66#3 3.027
R68 net_68 net_68#1 3.987
R69 net_68#2 net_68#3 3.747
R70 net_68#4 net_68#5 3.56
R71 net_71 net_71#1 2.973
R72 net_71#2 net_71#3 2.76
R73 net_71#4 net_71#5 3.907
R74 net_74 net_74#1 4.68
R75 net_74#2 net_74#3 1.773
R76 cout#0 cout#1 5.027
R77 sum6#0 sum6#1 1.907
R78 net_78 net_78#1 1.907
R79 net_78#2 net_78#3 2.12
R80 net_80 net_80#1 5.747
R81 net_80#2 net_80#3 2.547
R82 net_82 net_82#1 2.76
R83 net_82#2 net_82#3 1.907
R84 net_66 net_66#4 6.96
R85 net_66#5 net_66#6 2.253
R86 net_86 net_86#1 1.04
R87 net_86#2 net_86#3 4.413
R88 net_88 net_88#1 3.32
R89 net_88#2 net_88#3 2.733
R90 net_90 net_90#1 4.707
R91 net_90#2 net_90#3 3.16
R92 net_90#4 net_90#5 3.8
R93 sum3#0 sum3#1 3.293
R94 net_94 net_94#1 4.68
R95 net_94#2 net_94#3 3.507
R96 sum7#0 sum7#1 3.293
R97 sum0#0 sum0#1 3.64
R98 net_98 net_98#1 3.427
R99 net_98#2 net_98#3 3.213
R100 net_100 net_100#1 5.027
R101 net_100#2 net_100#3 3.853
R102 net_102 net_102#1 3.853
R103 net_102#2 net_102#3 3.853
R104 net_104 net_104#1 4.2
R105 net_104#2 net_104#3 5.373
R106 net_106 net_106#1 4.2
R107 net_106#2 net_106#3 4.2
R108 net_108 net_108#1 3.987
R109 net_108#2 net_108#3 2.813
R110 net_110 net_110#1 1.933
R111 net_110#2 net_110#3 4.547
R112 net_112 net_112#1 5.187
R113 net_112#2 net_112#3 4.333
R114 net_114 net_114#1 5.32
R115 net_114#2 net_114#3 2.973
R116 net_116 net_116#1 6.413
R117 net_116#2 net_116#3 4.6
R118 net_116#4 net_116#5 3.053
R119 net_116#6 net_116#7 4.813
R120 net_120 net_120#1 4.6
R121 net_120#2 net_120#3 4.813
R122 net_122 net_122#1 6.013
R123 net_122#2 net_122#3 5.373
R124 net_124 net_124#1 1.907
R125 net_124#2 net_124#3 2.76
R126 net_124#4 net_124#3 4.147
R127 net_127 net_127#1 2.12
R128 net_127#2 net_127#3 3.293
R129 net_129 net_129#1 2.253
R130 net_129#2 net_129#1 3.8
R131 net_131 net_131#1 2.04
R132 net_131#2 net_131#3 1.827
R133 net_133 net_133#1 1.827
R134 net_133#2 net_133#3 2.04
R135 net_133#4 net_133#5 2.467
R136 net_133#6 net_133#7 3.64
R137 net_86 net_86#4 5.573
R138 net_86#5 net_86#6 2.253
R139 net_139 net_139#1 2.813
R140 net_139#2 net_139#3 2.813
R141 net_141 net_141#1 2.173
R142 net_141#2 net_141#3 2.6
R143 net_143 net_143#1 2.6
R144 net_143#2 net_143#3 3.453
R145 net_88#4 net_88#5 2.52
R146 net_88#2 net_88#6 3.533
R147 net_88#7 net_88#8 3.747
R148 net_148 net_148#1 2.947
R149 net_148#2 net_148#3 3.16
R150 net_148#4 net_148#5 3.16
R151 net_148#6 net_148#7 3.16
R152 net_152 net_152#1 3.16
R153 net_152#2 net_152#3 4.333
R154 net_154 net_154#1 3.507
R155 net_154#2 net_154#3 3.507
R156 net_154#4 net_154#5 2.973
R157 net_157 net_157#1 2.867
R158 net_157#2 net_157#3 3.08
R159 net_159 net_159#1 3.64
R160 net_159#2 net_159#3 4.28
R161 net_161 net_161#1 5.027
R162 net_161#2 net_161#3 3.427
R163 net_161#4 net_161#5 3.213
R164 net_164 net_164#1 3.853
R165 net_164#2 net_164#3 3.853
R166 net_166 net_166#1 3.987
R167 net_166#2 net_166#3 4.627
R168 sum1#0 sum1 2.28
R169 sum2#0 sum2 2.28
R170 net_0#1 net_0#3 8.72
R171 net_3#1 net_3#3 1.493
R172 net_6#1 net_6#3 1.28
R173 net_6#3 net_6#5 2.347
R174 net_6#5 net_6#7 1.493
R175 net_10#1 net_10#3 1.467
R176 net_10#3 net_10#5 1.92
R177 net_13#1 net_13#3 1.707
R178 net_15#1 net_15#3 0.96
R179 net_17#1 net_17#3 2.027
R180 net_19#1 net_19#3 1.573
R181 net_21#1 net_21#3 3.627
R182 net_21#3 net_21#5 2.747
R183 net_21#5 net_21#7 4.267
R184 net_25#1 net_25#3 16.827
R185 net_27#1 net_27#3 1.493
R186 net_29#1 net_29#3 2.347
R187 net_29#3 net_29#5 0.64
R188 net_32#1 net_32#3 0.96
R189 net_32#3 net_32#5 9.253
R190 net_35#1 net_35#3 1.493
R191 net_37#1 net_37#3 1.52
R192 net_37#3 net_37#5 1.013
R193 net_37#5 net_37#7 1.013
R194 net_37#7 net_37#9 2.16
R195 net_42#1 net_42#3 0.64
R196 net_46#1 net_46#3 2.027
R197 net_48#1 net_48#3 1.92
R198 net_48#3 net_48#5 1.493
R199 net_48#5 net_48#7 1.28
R200 net_52#1 net_52#3 0.96
R201 net_54#1 net_54#3 0.64
R202 net_56#1 net_56#3 0.667
R203 net_58#1 net_58#3 1.493
R204 net_60#1 net_60#3 9.733
R205 net_62#1 net_62#3 15.253
R206 net_64#1 net_64#3 1.413
R207 net_66#1 net_66#3 18.12
R208 net_68#1 net_68#3 7.253
R209 net_68#3 net_68#5 4
R210 net_71#1 net_71#3 0.64
R211 net_71#3 net_71#5 2.507
R212 net_74#1 net_74#3 8.533
R213 cout#1 cout 9.933
R214 sum6#1 sum6 9.613
R215 net_78#1 net_78#3 1.387
R216 net_80#1 net_80#3 4
R217 net_82#1 net_82#3 2.08
R218 net_66#4 net_66#6 19.96
R219 net_86#1 net_86#3 19.72
R220 net_88#1 net_88#3 9.307
R221 net_90#1 net_90#3 5.707
R222 net_90#3 net_90#5 1.067
R223 sum3#1 sum3 4.067
R224 net_94#1 net_94#3 2.347
R225 sum7 sum7#1 11.213
R226 sum0#1 sum0 4.707
R227 net_98#1 net_98#3 1.493
R228 net_100#1 net_100#3 1.067
R229 net_102#1 net_102#3 2.027
R230 net_104#1 net_104#3 1.707
R231 net_106#1 net_106#3 0.96
R232 net_108#1 net_108#3 11.307
R233 net_110#1 net_110#3 5.893
R234 net_112#1 net_112#3 2.107
R235 net_114#1 net_114#3 16.16
R236 net_116#1 net_116#3 1.067
R237 net_116#3 net_116#5 1.333
R238 net_116#5 net_116#7 1.413
R239 net_120#1 net_120#3 1.493
R240 net_122#1 net_122#3 4.88
R241 net_124#1 net_124#3 2.107
R242 net_127#1 net_127#3 11.92
R243 net_131#1 net_131#3 1.493
R244 net_133#1 net_133#3 1.493
R245 net_133#3 net_133#5 1.28
R246 net_133#5 net_133#7 1.28
R247 net_86#4 net_86#6 9.373
R248 net_139#1 net_139#3 2.027
R249 net_141#1 net_141#3 3.413
R250 net_143#1 net_143#3 6.8
R251 net_88#5 net_88#6 2.907
R252 net_88#6 net_88#8 1.493
R253 net_148#1 net_148#3 1.893
R254 net_148#3 net_148#5 1.28
R255 net_148#5 net_148#7 0.96
R256 net_152#1 net_152#3 4.053
R257 net_154#1 net_154#3 2.027
R258 net_154#3 net_154#5 7.147
R259 net_157#1 net_157#3 1.493
R260 net_159#1 net_159#3 7.867
R261 net_161#1 net_161#3 2.133
R262 net_161#3 net_161#5 1.493
R263 net_164#1 net_164#3 0.96
R264 net_166#1 net_166#3 1.893
