*** SPICE deck for cell Skalansky16{lay} from library ProyectoIntegrador
*** Created on sáb oct 25, 2014 17:43:39
*** Last revised on sáb oct 25, 2014 20:09:14
*** Written on sáb oct 25, 2014 20:55:27 by Electric VLSI Design System, 
*** version 9.05
*** Layout tech: mocmos, foundry MOSIS
*** UC SPICE *** , MIN_RESIST 0.5, MIN_CAPAC 0.5FF
***    P-Active:	areacap=1.167FF/um^2,	edgecap=0.203FF/um,	res=7.5ohms/sq
***    N-Active:	areacap=0.982FF/um^2,	edgecap=0.244FF/um,	res=6.7ohms/sq
***    
*** Polysilicon-1:	areacap=0.1467FF/um^2,	edgecap=0.0608FF/um,	res=7.8ohms/sq
***    Transistor-Poly:	areacap=0.09FF/um^2,	edgecap=0.0FF/um,	res=2.5ohms/sq
***    Poly-Cut:	areacap=0.0FF/um^2,	edgecap=0.0FF/um,	res=10.5ohms/sq
***    Active-Cut:	areacap=0.0FF/um^2,	edgecap=0.0FF/um,	res=12.2ohms/sq
***    Metal-1:	areacap=0.1209FF/um^2,	edgecap=0.1104FF/um,	res=0.08ohms/sq
***    Via1:	areacap=0.0FF/um^2,	edgecap=0.0FF/um,	res=5.69ohms/sq
***    Metal-2:	areacap=0.0843FF/um^2,	edgecap=0.0974FF/um,	res=0.08ohms/sq
***    Via2:	areacap=0.0FF/um^2,	edgecap=0.0FF/um,	res=11.39ohms/sq
***    Metal-3:	areacap=0.0843FF/um^2,	edgecap=0.0974FF/um,	res=0.08ohms/sq
***    Via3:	areacap=0.0FF/um^2,	edgecap=0.0FF/um,	res=16.73ohms/sq
***    Metal-4:	areacap=0.0843FF/um^2,	edgecap=0.0974FF/um,	res=0.08ohms/sq
***    Via4:	areacap=0.0FF/um^2,	edgecap=0.0FF/um,	res=21.44ohms/sq
***    Metal-5:	areacap=0.0843FF/um^2,	edgecap=0.0974FF/um,	res=0.07ohms/sq
***    Via5:	areacap=0.0FF/um^2,	edgecap=0.0FF/um,	res=24.08ohms/sq
***    Metal-6:	areacap=0.0423FF/um^2,	edgecap=0.1273FF/um,	res=0.03ohms/sq
***    Hi-Res:	areacap=0.0FF/um^2,	edgecap=0.0FF/um,	res=1.0ohms/sq
* Model cards are described in this file:
.include /home/lean/tfinal/trabajo/models/tsmc180nm.model

*** SUBCIRCUIT ProyectoIntegrador__id FROM CELL id{lay}
.SUBCKT ProyectoIntegrador__id vss a vdd y
Mnmos_0 net_10 a#1 0 0 N L=0.2U W=0.4U AS=0.6P AD=0.3P PS=5.8U PD=2.2U
Mnmos_1 y#0 net_10#6 0 0 N L=0.2U W=0.4U AS=0.6P AD=0.3P PS=5.8U PD=2.2U
Mpmos_0 net_10#2 a#5 vdd vdd P L=0.2U W=0.8U AS=0.8P AD=0.3P PS=6.6U PD=2.2U
Mpmos_1 y#2 net_10#10 vdd vdd P L=0.2U W=0.8U AS=0.8P AD=0.3P PS=6.6U PD=2.2U
** Extracted Parasitic Capacitors ***
C0 net_10 0 0.649fF
C1 net_10#2 0 0.623fF
C2 y#0 0 0.546fF
C3 y#2 0 0.726fF
C4 net_10#4 0 1.495fF
C5 y 0 1.272fF
C6 a#3 0 0.66fF
C7 net_10#8 0 0.66fF
** Extracted Parasitic Resistors ***
R0 a#1 a#2 15.6
R1 a#3 a#2 181.35
R2 a#4 a#3 157.95
R3 a a#3 1.95
R4 a#5 a#4 15.6
R5 net_10#6 net_10#7 15.6
R6 net_10#8 net_10#7 181.35
R7 net_10#9 net_10#8 157.95
R8 net_10#4 net_10#8 1.95
R9 net_10#10 net_10#9 15.6
R10 y#2 y 1.507
R11 net_10#2 net_10#4 1.293
R12 net_10#4 net_10 1.347
R13 y#0 y 1.133
.ENDS ProyectoIntegrador__id

*** SUBCIRCUIT ProyectoIntegrador__xor2_1x FROM CELL xor2_1x{lay}
.SUBCKT ProyectoIntegrador__xor2_1x vss a b vdd y
Mnmos_0 net_79 a#9 0 0 N L=0.2U W=0.4U AS=0.44P AD=0.088P PS=4.2U PD=0.85U
Mnmos_1 net_76 net_160#11 y#0 0 N L=0.2U W=0.4U AS=0.18P AD=0.088P PS=1.2U 
+PD=0.85U
Mnmos_2 0 net_270#10 net_76 0 N L=0.2U W=0.4U AS=0.088P AD=0.44P PS=0.85U 
+PD=4.2U
Mnmos_3 y#0 b#5 net_79 0 N L=0.2U W=0.4U AS=0.088P AD=0.18P PS=0.85U PD=1.2U
Mnmos_4 net_160#12 b#0 0 0 N L=0.2U W=0.4U AS=0.44P AD=0.28P PS=4.2U PD=2.2U
Mnmos_5 0 a#5 net_270#2 0 N L=0.2U W=0.4U AS=0.28P AD=0.44P PS=2.2U PD=4.2U
Mpmos_0 net_68 net_270#12 vdd vdd P L=0.2U W=0.8U AS=0.56P AD=0.168P PS=4.6U 
+PD=1.25U
Mpmos_1 y b#11 net_68 vdd P L=0.2U W=0.8U AS=0.168P AD=0.18P PS=1.25U PD=1.2U
Mpmos_2 net_70 net_160#5 y vdd P L=0.2U W=0.8U AS=0.18P AD=0.168P PS=1.2U 
+PD=1.25U
Mpmos_4 vdd a#12 net_70 vdd P L=0.2U W=0.8U AS=0.168P AD=0.56P PS=1.25U 
+PD=4.6U
Mpmos_5 vdd a#1 net_270 vdd P L=0.2U W=0.8U AS=0.28P AD=0.56P PS=2.2U PD=4.6U
Mpmos_6 net_160 b#13 vdd vdd P L=0.2U W=0.8U AS=0.56P AD=0.28P PS=4.6U 
+PD=2.2U
** Extracted Parasitic Capacitors ***
C0 y#0 0 1.163fF
C1 y 0 1.06fF
C2 a#0 0 0.628fF
C3 net_160#12 0 0.594fF
C4 net_160 0 0.697fF
C5 a 0 1.269fF
C6 b 0 0.563fF
C7 net_270 0 1.519fF
C8 net_270#1 0 1.247fF
C9 net_160#2 0 1.362fF
C10 net_270#4 0 0.653fF
C11 b#2 0 0.66fF
C12 b#8 0 0.509fF
** Extracted Parasitic Resistors ***
R0 y y#0 2.413
R1 a#0 a 0.76
R2 a#1 a#2 15.6
R3 a#2 a#2##0 111.15
R4 a#2##0 a 111.15
R5 a#4 a#5 15.6
R6 a a#4 117
R7 b#0 b#1 31.2
R8 b#1 b#2 183.3
R9 b#2 b#4 156
R10 b b#2 1.95
R11 net_270 net_270#1 1.107
R12 net_270#1 net_270#2 0.653
R13 net_160#2 net_160 1.44
R14 net_160#2 net_160#4 0.6
R15 net_270#3 net_270#4 68.25
R16 net_270#7 net_270 1.95
R17 net_270#1 net_270#4 1.08
R18 a#0 a#0##0 101.4
R19 a#0##0 a#8 101.4
R20 b#5 b#6 39
R21 b#6 b#7 7.8
R22 b#7 b#8 142.35
R23 b#9 b#10 7.8
R24 b#10 b#11 39
R25 net_160#5 net_160#6 58.5
R26 net_160#6 net_160#7 7.8
R27 net_160#7 net_160#8 130.65
R28 net_160#9 net_160#10 7.8
R29 net_160#10 net_160#11 58.5
R30 b b#12 0.547
R31 b#8 b#9 118.95
R32 b#12 b#8 1.95
R33 net_160#8 net_160#9 91.65
R34 net_160#4 net_160#8 1.95
R35 net_160#12 net_160#2 1.16
R36 net_270#10 net_270#11 19.5
R37 net_270#11 net_270#3 31.2
R38 a#9 a#10 19.5
R39 a#10 a#11 15.6
R40 a#11 a 101.4
R41 net_270#12 net_270#13 19.5
R42 net_270#13 net_270#14 15.6
R43 net_270#14 net_270 76.05
R44 a#12 a#13 19.5
R45 a#13 a#8 15.6
R46 b#13 b#4 31.2
.ENDS ProyectoIntegrador__xor2_1x

*** SUBCIRCUIT ProyectoIntegrador__and2_1x FROM CELL and2_1x{lay}
.SUBCKT ProyectoIntegrador__and2_1x vss a b vdd y
Mnmos_0 net_121 b#7 net_149 0 N L=0.2U W=0.4U AS=0.088P AD=0.227P PS=0.85U 
+PD=1.533U
Mnmos_1 net_149 a#5 0 0 N L=0.2U W=0.4U AS=0.68P AD=0.088P PS=6.6U PD=0.85U
Mnmos_2 y#0 net_121#13 0 0 N L=0.2U W=0.4U AS=0.68P AD=0.3P PS=6.6U PD=2.2U
Mpmos_0 vdd b#1 net_121#2 vdd P L=0.2U W=0.8U AS=0.227P AD=0.693P PS=1.533U 
+PD=5.8U
Mpmos_1 net_121#2 a#1 vdd vdd P L=0.2U W=0.8U AS=0.693P AD=0.227P PS=5.8U 
+PD=1.533U
Mpmos_2 y#2 net_121#7 vdd vdd P L=0.2U W=0.8U AS=0.693P AD=0.3P PS=5.8U 
+PD=2.2U
** Extracted Parasitic Capacitors ***
C0 net_121 0 0.797fF
C1 net_121#2 0 0.501fF
C2 y#0 0 0.546fF
C3 y#2 0 0.726fF
C4 y 0 1.272fF
C5 net_121#3 0 2.178fF
C6 b#4 0 0.585fF
** Extracted Parasitic Resistors ***
R0 a#1 a#2 15.6
R1 a#2 a#2##0 125.775
R2 a#2##0 a#3 125.775
R3 b#1 b#2 19.5
R4 b#2 b#3 15.6
R5 b#3 b#4 140.4
R6 b#5 b#6 7.8
R7 b#6 b#7 19.5
R8 b#4 b#5 159.9
R9 b b#4 1.95
R10 a#3 a#4 87.75
R11 a#3 a 1.95
R12 a#4 a#5 15.6
R13 net_121#2 net_121#3 1.04
R14 y#2 y 1.507
R15 y y#0 1.133
R16 net_121#7 net_121#8 15.6
R17 net_121#3 net_121 1.547
R18 net_121#11 net_121#11##0 106.275
R19 net_121#11##0 net_121#3 106.275
R20 net_121#3 net_121#8 126.75
R21 net_121#11 net_121#13 15.6
.ENDS ProyectoIntegrador__and2_1x

*** SUBCIRCUIT ProyectoIntegrador__or2_1x FROM CELL or2_1x{lay}
.SUBCKT ProyectoIntegrador__or2_1x vss a b vdd y
Mnmos_0 net_56#2 a#1 0 0 N L=0.2U W=0.4U AS=0.52P AD=0.2P PS=5U PD=1.533U
Mnmos_1 0 b#3 net_56#2 0 N L=0.2U W=0.4U AS=0.2P AD=0.52P PS=1.533U PD=5U
Mnmos_2 y#0 net_56#9 0 0 N L=0.2U W=0.4U AS=0.52P AD=0.28P PS=5U PD=2.2U
Mpmos_0 net_55 a#3 vdd vdd P L=0.2U W=0.8U AS=0.84P AD=0.168P PS=7.4U 
+PD=1.25U
Mpmos_1 net_56 b#1 net_55 vdd P L=0.2U W=0.8U AS=0.168P AD=0.2P PS=1.25U 
+PD=1.533U
Mpmos_2 y#2 net_56#14 vdd vdd P L=0.2U W=0.8U AS=0.84P AD=0.28P PS=7.4U 
+PD=2.2U
** Extracted Parasitic Capacitors ***
C0 net_56 0 0.662fF
C1 y#0 0 0.546fF
C2 y#2 0 0.707fF
C3 net_56#13 0 1.09fF
C4 y 0 1.253fF
C5 net_56#6 0 0.848fF
C6 net_56#11 0 0.66fF
** Extracted Parasitic Resistors ***
R0 a#1 a#2 15.6
R1 a#3 a#4 15.6
R2 a#4 a#5 64.35
R3 b#1 b#2 23.4
R4 b#3 b#4 19.5
R5 b#2 b#5 7.8
R6 b#5 b#6 70.2
R7 b#7 b#4 15.6
R8 a#5 a#5##0 137.475
R9 a#5##0 a#2 137.475
R10 a#5 a 1.95
R11 b#6 b#6##0 113.1
R12 b#6##0 b#7 113.1
R13 b#6 b 1.95
R14 net_56#2 net_56#6 0.693
R15 net_56#9 net_56#10 15.6
R16 net_56#11 net_56#10 181.35
R17 net_56#12 net_56#11 157.95
R18 net_56#13 net_56#11 1.95
R19 y#2 y 1.467
R20 y y#0 1.133
R21 net_56#14 net_56#12 15.6
R22 net_56#6 net_56#13 0.64
R23 net_56#13 net_56 1.24
.ENDS ProyectoIntegrador__or2_1x

*** TOP LEVEL CELL: Skalansky16{lay}
Xc_cout 0 net_276 vdd cout#0 ProyectoIntegrador__id
Xc_sum0 0 net_42#2 vdd sum0#0 ProyectoIntegrador__id
Xc_sum1 0 net_39#2 vdd sum1#0 ProyectoIntegrador__id
Xc_sum2 0 net_2 vdd sum2#0 ProyectoIntegrador__id
Xc_sum3 0 net_11#2 vdd sum3#0 ProyectoIntegrador__id
Xc_sum4 0 net_47 vdd sum4#0 ProyectoIntegrador__id
Xc_sum5 0 net_138 vdd sum5#0 ProyectoIntegrador__id
Xc_sum6 0 net_106#2 vdd sum6#0 ProyectoIntegrador__id
Xc_sum7 0 net_132 vdd sum7#0 ProyectoIntegrador__id
Xc_sum8 0 net_379#2 vdd sum8#0 ProyectoIntegrador__id
Xc_sum9 0 net_242 vdd sum9#0 ProyectoIntegrador__id
Xc_sum10 0 net_207 vdd sum10#0 ProyectoIntegrador__id
Xc_sum11 0 net_307 vdd sum11#0 ProyectoIntegrador__id
Xc_sum12 0 net_437#2 vdd sum12#0 ProyectoIntegrador__id
Xc_sum13 0 net_413#2 vdd sum13#0 ProyectoIntegrador__id
Xc_sum14 0 net_371#2 vdd sum14#0 ProyectoIntegrador__id
Xc_sum15 0 net_356#2 vdd sum15#0 ProyectoIntegrador__id
Xc_w1 0 net_44#4 net_56#4 vdd net_42 ProyectoIntegrador__xor2_1x
Xc_w2 0 a0#0 vdd net_44 ProyectoIntegrador__id
Xc_w3 0 b0#0 vdd net_56 ProyectoIntegrador__id
Xc_w4 0 net_22#2 net_72 vdd net_39 ProyectoIntegrador__xor2_1x
Xc_w5 0 net_44#2 net_56#2 vdd net_22 ProyectoIntegrador__and2_1x
Xc_w6 0 net_53 net_69 vdd net_72#4 ProyectoIntegrador__xor2_1x
Xc_w7 0 a1#0 vdd net_53#4 ProyectoIntegrador__id
Xc_w8 0 b1#0 vdd net_69#4 ProyectoIntegrador__id
Xc_w9 0 net_80 net_64 vdd net_2#2 ProyectoIntegrador__xor2_1x
Xc_w10 0 net_36#2 net_20#2 vdd net_80#4 ProyectoIntegrador__or2_1x
Xc_w11 0 net_53#2 net_69#2 vdd net_36 ProyectoIntegrador__and2_1x
Xc_w12 0 net_72#2 net_22#4 vdd net_20 ProyectoIntegrador__and2_1x
Xc_w13 0 net_15 net_77 vdd net_64#6 ProyectoIntegrador__xor2_1x
Xc_w14 0 a2#0 vdd net_15#4 ProyectoIntegrador__id
Xc_w15 0 b2#0 vdd net_77#4 ProyectoIntegrador__id
Xc_w16 0 net_13#2 net_32#4 vdd net_11 ProyectoIntegrador__xor2_1x
Xc_w17 0 net_61#2 net_51#2 vdd net_13 ProyectoIntegrador__or2_1x
Xc_w18 0 net_15#2 net_77#2 vdd net_61 ProyectoIntegrador__and2_1x
Xc_w19 0 net_64#2 net_80#2 vdd net_51 ProyectoIntegrador__and2_1x
Xc_w20 0 net_7 net_29 vdd net_32#6 ProyectoIntegrador__xor2_1x
Xc_w21 0 a3#0 vdd net_7#4 ProyectoIntegrador__id
Xc_w22 0 b3#0 vdd net_29#4 ProyectoIntegrador__id
Xc_w23 0 net_115#6 net_148#4 vdd net_47#2 ProyectoIntegrador__xor2_1x
Xc_w24 0 net_5#2 net_0#2 vdd net_115#4 ProyectoIntegrador__or2_1x
Xc_w25 0 net_59#2 net_49#2 vdd net_5 ProyectoIntegrador__or2_1x
Xc_w26 0 net_7#2 net_29#2 vdd net_59 ProyectoIntegrador__and2_1x
Xc_w27 0 net_32#2 net_61#4 vdd net_49 ProyectoIntegrador__and2_1x
Xc_w28 0 net_18 net_80#6 vdd net_0 ProyectoIntegrador__and2_1x
Xc_w29 0 net_32 net_64#4 vdd net_18#2 ProyectoIntegrador__and2_1x
Xc_w30 0 net_236#4 net_140#4 vdd net_148 ProyectoIntegrador__xor2_1x
Xc_w31 0 a4#0 vdd net_236 ProyectoIntegrador__id
Xc_w32 0 b4#0 vdd net_140 ProyectoIntegrador__id
Xc_w33 0 net_136 net_88 vdd net_138#2 ProyectoIntegrador__xor2_1x
Xc_w34 0 net_164#2 net_153 vdd net_136#2 ProyectoIntegrador__or2_1x
Xc_w35 0 net_236#2 net_140#2 vdd net_164 ProyectoIntegrador__and2_1x
Xc_w36 0 net_148#6 net_115#8 vdd net_153#2 ProyectoIntegrador__and2_1x
Xc_w37 0 net_174 net_161#2 vdd net_88#4 ProyectoIntegrador__xor2_1x
Xc_w38 0 a5#0 vdd net_174#4 ProyectoIntegrador__id
Xc_w39 0 b5#0 vdd net_161 ProyectoIntegrador__id
Xc_w40 0 net_168#2 net_197#4 vdd net_106 ProyectoIntegrador__xor2_1x
Xc_w41 0 net_108#6 net_177 vdd net_168 ProyectoIntegrador__or2_1x
Xc_w42 0 net_145#2 net_134#2 vdd net_108 ProyectoIntegrador__or2_1x
Xc_w43 0 net_174#2 net_161#4 vdd net_145 ProyectoIntegrador__and2_1x
Xc_w44 0 net_88#2 net_164#4 vdd net_134 ProyectoIntegrador__and2_1x
Xc_w45 0 net_102#2 net_115 vdd net_177#2 ProyectoIntegrador__and2_1x
Xc_w46 0 net_88#6 net_148#2 vdd net_102#4 ProyectoIntegrador__and2_1x
Xc_w47 0 net_270 net_222 vdd net_197 ProyectoIntegrador__xor2_1x
Xc_w48 0 a6#0 vdd net_270#4 ProyectoIntegrador__id
Xc_w49 0 b6#0 vdd net_222#4 ProyectoIntegrador__id
Xc_w50 0 net_130 net_97#4 vdd net_132#2 ProyectoIntegrador__xor2_1x
Xc_w51 0 net_143#2 net_86 vdd net_130#2 ProyectoIntegrador__or2_1x
Xc_w52 0 net_209#4 net_170 vdd net_143 ProyectoIntegrador__or2_1x
Xc_w53 0 net_270#2 net_222#2 vdd net_209 ProyectoIntegrador__and2_1x
Xc_w54 0 net_197#2 net_108#4 vdd net_170#2 ProyectoIntegrador__and2_1x
Xc_w55 0 net_93#2 net_115#10 vdd net_86#2 ProyectoIntegrador__and2_1x
Xc_w56 0 net_197#8 net_102#6 vdd net_93 ProyectoIntegrador__and2_1x
Xc_w57 0 net_126#4 net_158#4 vdd net_97 ProyectoIntegrador__xor2_1x
Xc_w58 0 a7#0 vdd net_126 ProyectoIntegrador__id
Xc_w59 0 b7#0 vdd net_158 ProyectoIntegrador__id
Xc_w60 0 net_331#6 net_282#2 vdd net_379 ProyectoIntegrador__xor2_1x
Xc_w61 0 net_244#5 net_239#5 vdd net_331#10 ProyectoIntegrador__or2_1x
Xc_w62 0 net_124#2 net_172 vdd net_244#2 ProyectoIntegrador__or2_1x
Xc_w63 0 net_112#2 net_156 vdd net_124 ProyectoIntegrador__or2_1x
Xc_w64 0 net_126#2 net_158#2 vdd net_112 ProyectoIntegrador__and2_1x
Xc_w65 0 net_97#2 net_209#2 vdd net_156#2 ProyectoIntegrador__and2_1x
Xc_w66 0 net_121 net_108#2 vdd net_172#2 ProyectoIntegrador__and2_1x
Xc_w67 0 net_97#6 net_197#6 vdd net_121#2 ProyectoIntegrador__and2_1x
Xc_w68 0 net_95#2 net_115#2 vdd net_239#2 ProyectoIntegrador__and2_1x
Xc_w69 0 net_121#4 net_102 vdd net_95 ProyectoIntegrador__and2_1x
Xc_w70 0 net_219#4 net_233#4 vdd net_282 ProyectoIntegrador__xor2_1x
Xc_w71 0 a8#0 vdd net_219 ProyectoIntegrador__id
Xc_w72 0 b8#0 vdd net_233 ProyectoIntegrador__id
Xc_w73 0 net_191 net_248 vdd net_242#2 ProyectoIntegrador__xor2_1x
Xc_w74 0 net_258#2 net_318 vdd net_191#2 ProyectoIntegrador__or2_1x
Xc_w75 0 net_219#2 net_233#2 vdd net_258 ProyectoIntegrador__and2_1x
Xc_w76 0 net_282#4 net_331#8 vdd net_318#2 ProyectoIntegrador__and2_1x
Xc_w77 0 net_264#2 net_188#2 vdd net_248#4 ProyectoIntegrador__xor2_1x
Xc_w78 0 a9#0 vdd net_264 ProyectoIntegrador__id
Xc_w79 0 b9#0 vdd net_188 ProyectoIntegrador__id
Xc_w80 0 net_186 net_225#2 vdd net_207#2 ProyectoIntegrador__xor2_1x
Xc_w81 0 net_203 net_253 vdd net_186#2 ProyectoIntegrador__or2_1x
Xc_w82 0 net_262#2 net_256#2 vdd net_203#4 ProyectoIntegrador__or2_1x
Xc_w83 0 net_264#4 net_188#4 vdd net_262 ProyectoIntegrador__and2_1x
Xc_w84 0 net_248#2 net_258#4 vdd net_256 ProyectoIntegrador__and2_1x
Xc_w85 0 net_179#6 net_331#14 vdd net_253#2 ProyectoIntegrador__and2_1x
Xc_w86 0 net_248#6 net_282#6 vdd net_179#2 ProyectoIntegrador__and2_1x
Xc_w87 0 net_213#4 net_193#4 vdd net_225 ProyectoIntegrador__xor2_1x
Xc_w88 0 a10#0 vdd net_213 ProyectoIntegrador__id
Xc_w89 0 b10#0 vdd net_193 ProyectoIntegrador__id
Xc_w90 0 net_305 net_341#2 vdd net_307#2 ProyectoIntegrador__xor2_1x
Xc_w91 0 net_366#2 net_303 vdd net_305#2 ProyectoIntegrador__or2_1x
Xc_w92 0 net_309#4 net_313 vdd net_366 ProyectoIntegrador__or2_1x
Xc_w93 0 net_213#2 net_193#2 vdd net_309 ProyectoIntegrador__and2_1x
Xc_w94 0 net_225#4 net_203#2 vdd net_313#2 ProyectoIntegrador__and2_1x
Xc_w95 0 net_301 net_331#4 vdd net_303#2 ProyectoIntegrador__and2_1x
Xc_w96 0 net_225#8 net_179#4 vdd net_301#2 ProyectoIntegrador__and2_1x
Xc_w97 0 net_368#2 net_397#2 vdd net_341#7 ProyectoIntegrador__xor2_1x
Xc_w98 0 a11#0 vdd net_368#4 ProyectoIntegrador__id
Xc_w99 0 b11#0 vdd net_397#4 ProyectoIntegrador__id
Xc_w100 0 net_450 net_422#2 vdd net_437 ProyectoIntegrador__xor2_1x
Xc_w101 0 net_344#2 net_354#2 vdd net_450#2 ProyectoIntegrador__or2_1x
Xc_w102 0 net_297 net_352 vdd net_344#10 ProyectoIntegrador__or2_1x
Xc_w103 0 net_411 net_295 vdd net_297#2 ProyectoIntegrador__or2_1x
Xc_w104 0 net_368 net_397 vdd net_411#2 ProyectoIntegrador__and2_1x
Xc_w105 0 net_341 net_309#2 vdd net_295#2 ProyectoIntegrador__and2_1x
Xc_w106 0 net_183 net_203#6 vdd net_352#2 ProyectoIntegrador__and2_1x
Xc_w107 0 net_341#4 net_225#6 vdd net_183#2 ProyectoIntegrador__and2_1x
Xc_w108 0 net_339#11 net_331#17 vdd net_354 ProyectoIntegrador__and2_1x
Xc_w109 0 net_183#4 net_179 vdd net_339#2 ProyectoIntegrador__and2_1x
Xc_w110 0 net_434 net_419 vdd net_422#8 ProyectoIntegrador__xor2_1x
Xc_w111 0 a12#0 vdd net_434#4 ProyectoIntegrador__id
Xc_w112 0 b12#0 vdd net_419#4 ProyectoIntegrador__id
Xc_w113 0 net_415#2 net_387#4 vdd net_413 ProyectoIntegrador__xor2_1x
Xc_w114 0 net_432 net_417#2 vdd net_415 ProyectoIntegrador__or2_1x
Xc_w115 0 net_447#2 net_464#2 vdd net_432#2 ProyectoIntegrador__or2_1x
Xc_w116 0 net_434#2 net_419#2 vdd net_447 ProyectoIntegrador__and2_1x
Xc_w117 0 net_422#6 net_344 vdd net_464 ProyectoIntegrador__and2_1x
Xc_w118 0 net_478#2 net_331#19 vdd net_417 ProyectoIntegrador__and2_1x
Xc_w119 0 net_422 net_339#9 vdd net_478 ProyectoIntegrador__and2_1x
Xc_w120 0 net_444 net_384 vdd net_387#6 ProyectoIntegrador__xor2_1x
Xc_w121 0 a13#0 vdd net_444#4 ProyectoIntegrador__id
Xc_w122 0 b13#0 vdd net_384#4 ProyectoIntegrador__id
Xc_w123 0 net_373#2 net_400#8 vdd net_371 ProyectoIntegrador__xor2_1x
Xc_w124 0 net_459#2 net_288 vdd net_373 ProyectoIntegrador__or2_1x
Xc_w125 0 net_391#2 net_476 vdd net_459 ProyectoIntegrador__or2_1x
Xc_w126 0 net_455 net_457 vdd net_391#6 ProyectoIntegrador__or2_1x
Xc_w127 0 net_444#2 net_384#2 vdd net_455#2 ProyectoIntegrador__and2_1x
Xc_w128 0 net_387#2 net_447#4 vdd net_457#2 ProyectoIntegrador__and2_1x
Xc_w129 0 net_324#8 net_344#4 vdd net_476#2 ProyectoIntegrador__and2_1x
Xc_w130 0 net_387 net_422#4 vdd net_324#6 ProyectoIntegrador__and2_1x
Xc_w131 0 net_286 net_331 vdd net_288#2 ProyectoIntegrador__and2_1x
Xc_w132 0 net_324#4 net_339#7 vdd net_286#2 ProyectoIntegrador__and2_1x
Xc_w133 0 net_381#2 net_441#4 vdd net_400#6 ProyectoIntegrador__xor2_1x
Xc_w134 0 a14#0 vdd net_381#4 ProyectoIntegrador__id
Xc_w135 0 b14#0 vdd net_441 ProyectoIntegrador__id
Xc_w136 0 net_360#2 net_291#4 vdd net_356 ProyectoIntegrador__xor2_1x
Xc_w137 0 net_364#2 net_362#2 vdd net_360 ProyectoIntegrador__or2_1x
Xc_w138 0 net_299#2 net_320#2 vdd net_364 ProyectoIntegrador__or2_1x
Xc_w139 0 net_473#2 net_439 vdd net_299 ProyectoIntegrador__or2_1x
Xc_w140 0 net_381 net_441#2 vdd net_473#4 ProyectoIntegrador__and2_1x
Xc_w141 0 net_400#2 net_391 vdd net_439#2 ProyectoIntegrador__and2_1x
Xc_w142 0 net_315#4 net_344#8 vdd net_320 ProyectoIntegrador__and2_1x
Xc_w143 0 net_400#4 net_324#2 vdd net_315 ProyectoIntegrador__and2_1x
Xc_w144 0 net_358#2 net_331#2 vdd net_362 ProyectoIntegrador__and2_1x
Xc_w145 0 net_315#2 net_339 vdd net_358 ProyectoIntegrador__and2_1x
Xc_w146 0 net_216#4 net_230#4 vdd net_291#2 ProyectoIntegrador__xor2_1x
Xc_w147 0 a15#0 vdd net_216 ProyectoIntegrador__id
Xc_w148 0 b15#0 vdd net_230 ProyectoIntegrador__id
Xc_w149 0 net_322#2 net_274 vdd net_276#2 ProyectoIntegrador__or2_1x
Xc_w150 0 net_471#2 net_278#2 vdd net_322 ProyectoIntegrador__or2_1x
Xc_w151 0 net_375#2 net_409 vdd net_471 ProyectoIntegrador__or2_1x
Xc_w152 0 net_280#5 net_377#2 vdd net_375 ProyectoIntegrador__or2_1x
Xc_w153 0 net_216#2 net_230#2 vdd net_280#2 ProyectoIntegrador__and2_1x
Xc_w154 0 net_291#6 net_473 vdd net_377 ProyectoIntegrador__and2_1x
Xc_w155 0 net_427#4 net_391#4 vdd net_409#2 ProyectoIntegrador__and2_1x
Xc_w156 0 net_291 net_400 vdd net_427 ProyectoIntegrador__and2_1x
Xc_w157 0 net_452#4 net_344#6 vdd net_278 ProyectoIntegrador__and2_1x
Xc_w158 0 net_427#2 net_324 vdd net_452 ProyectoIntegrador__and2_1x
Xc_w159 0 net_407#2 net_331#12 vdd net_274#2 ProyectoIntegrador__and2_1x
Xc_w160 0 net_452#2 net_339#5 vdd net_407 ProyectoIntegrador__and2_1x
** Extracted Parasitic Capacitors ***
C0 net_276 0 0.875fF
C1 cout#0 0 1.359fF
C2 net_42#2 0 1.161fF
C3 sum0#0 0 1.073fF
C4 net_39#2 0 1.161fF
C5 sum1#0 0 1.073fF
C6 net_2 0 0.875fF
C7 sum2#0 0 0.93fF
C8 net_11#2 0 1.018fF
C9 sum3#0 0 0.93fF
C10 net_47 0 1.304fF
C11 sum4#0 0 0.787fF
C12 net_138 0 1.447fF
C13 sum5#0 0 0.787fF
C14 net_106#2 0 1.161fF
C15 sum6#0 0 2.074fF
C16 net_132 0 1.447fF
C17 sum7#0 0 1.931fF
C18 net_379#2 0 1.018fF
C19 sum8#0 0 0.941fF
C20 net_242 0 1.733fF
C21 sum9#0 0 1.216fF
C22 net_207 0 1.161fF
C23 sum10#0 0 1.788fF
C24 net_307 0 1.447fF
C25 sum11#0 0 1.216fF
C26 net_437#2 0 1.59fF
C27 sum12#0 0 0.941fF
C28 net_413#2 0 1.447fF
C29 sum13#0 0 0.941fF
C30 net_371#2 0 0.875fF
C31 sum14#0 0 0.941fF
C32 net_356#2 0 2.735fF
C33 sum15#0 0 1.073fF
C34 net_44#4 0 0.985fF
C35 net_56#4 0 1.447fF
C36 net_42 0 1.645fF
C37 a0#0 0 1.018fF
C38 net_44 0 1.073fF
C39 b0#0 0 1.018fF
C40 net_56 0 1.359fF
C41 net_22#2 0 0.842fF
C42 net_72 0 1.59fF
C43 net_39 0 1.645fF
C44 net_44#2 0 0.897fF
C45 net_56#2 0 1.447fF
C46 net_22 0 0.93fF
C47 net_53 0 1.271fF
C48 net_69 0 1.59fF
C49 net_72#4 0 2.074fF
C50 a1#0 0 1.59fF
C51 net_53#4 0 1.359fF
C52 b1#0 0 1.733fF
C53 net_69#4 0 1.502fF
C54 net_80 0 1.557fF
C55 net_64 0 1.59fF
C56 net_2#2 0 1.359fF
C57 net_36#2 0 1.425fF
C58 net_20#2 0 1.194fF
C59 net_80#4 0 1.645fF
C60 net_53#2 0 1.183fF
C61 net_69#2 0 1.59fF
C62 net_36 0 1.073fF
C63 net_72#2 0 1.326fF
C64 net_22#4 0 1.018fF
C65 net_20 0 0.93fF
C66 net_15 0 0.842fF
C67 net_77 0 1.733fF
C68 net_64#6 0 2.074fF
C69 a2#0 0 1.733fF
C70 net_15#4 0 0.93fF
C71 b2#0 0 1.876fF
C72 net_77#4 0 1.645fF
C73 net_13#2 0 0.842fF
C74 net_32#4 0 1.161fF
C75 net_11 0 1.502fF
C76 net_61#2 0 1.854fF
C77 net_51#2 0 1.623fF
C78 net_13 0 0.93fF
C79 net_15#2 0 0.754fF
C80 net_77#2 0 1.733fF
C81 net_61 0 1.502fF
C82 net_64#2 0 1.326fF
C83 net_80#2 0 1.733fF
C84 net_51 0 1.359fF
C85 net_7 0 0.842fF
C86 net_29 0 1.161fF
C87 net_32#6 0 1.645fF
C88 a3#0 0 1.161fF
C89 net_7#4 0 0.93fF
C90 b3#0 0 1.733fF
C91 net_29#4 0 1.073fF
C92 net_115#6 0 2.03fF
C93 net_148#4 0 1.425fF
C94 net_47#2 0 1.788fF
C95 net_5#2 0 1.282fF
C96 net_0#2 0 1.051fF
C97 net_115#4 0 1.942fF
C98 net_59#2 0 1.854fF
C99 net_49#2 0 1.623fF
C100 net_5 0 0.93fF
C101 net_7#2 0 0.754fF
C102 net_29#2 0 1.161fF
C103 net_59 0 1.502fF
C104 net_32#2 0 0.897fF
C105 net_61#4 0 1.59fF
C106 net_49 0 1.359fF
C107 net_18 0 0.754fF
C108 net_80#6 0 1.733fF
C109 net_0 0 0.787fF
C110 net_32 0 0.897fF
C111 net_64#4 0 1.59fF
C112 net_18#2 0 0.93fF
C113 net_236#4 0 2.603fF
C114 net_140#4 0 1.447fF
C115 net_148 0 2.217fF
C116 a4#0 0 1.018fF
C117 net_236 0 1.359fF
C118 b4#0 0 1.733fF
C119 net_140 0 1.359fF
C120 net_136 0 1.271fF
C121 net_88 0 0.875fF
C122 net_138#2 0 1.931fF
C123 net_164#2 0 2.283fF
C124 net_153 0 2.052fF
C125 net_136#2 0 1.359fF
C126 net_236#2 0 2.691fF
C127 net_140#2 0 1.447fF
C128 net_164 0 1.931fF
C129 net_148#6 0 1.689fF
C130 net_115#8 0 1.854fF
C131 net_153#2 0 1.37fF
C132 net_174 0 1.986fF
C133 net_161#2 0 2.019fF
C134 net_88#4 0 1.359fF
C135 a5#0 0 1.304fF
C136 net_174#4 0 2.074fF
C137 b5#0 0 1.59fF
C138 net_161 0 1.931fF
C139 net_168#2 0 1.986fF
C140 net_197#4 0 2.856fF
C141 net_106 0 1.645fF
C142 net_108#6 0 1.425fF
C143 net_177 0 2.482fF
C144 net_168 0 2.074fF
C145 net_145#2 0 1.854fF
C146 net_134#2 0 1.623fF
C147 net_108 0 1.073fF
C148 net_174#2 0 1.898fF
C149 net_161#4 0 2.019fF
C150 net_145 0 1.502fF
C151 net_88#2 0 0.611fF
C152 net_164#4 0 2.019fF
C153 net_134 0 1.359fF
C154 net_102#2 0 0.897fF
C155 net_115 0 1.304fF
C156 net_177#2 0 2.217fF
C157 net_88#6 0 0.611fF
C158 net_148#2 0 1.733fF
C159 net_102#4 0 1.073fF
C160 net_270 0 2.702fF
C161 net_222 0 1.304fF
C162 net_197 0 1.502fF
C163 a6#0 0 3.021fF
C164 net_270#4 0 2.79fF
C165 b6#0 0 2.735fF
C166 net_222#4 0 1.216fF
C167 net_130 0 1.271fF
C168 net_97#4 0 1.018fF
C169 net_132#2 0 1.931fF
C170 net_143#2 0 1.854fF
C171 net_86 0 1.051fF
C172 net_130#2 0 1.359fF
C173 net_209#4 0 2.449fF
C174 net_170 0 2.338fF
C175 net_143 0 1.502fF
C176 net_270#2 0 2.614fF
C177 net_222#2 0 1.304fF
C178 net_209 0 1.073fF
C179 net_197#2 0 3.12fF
C180 net_108#4 0 1.161fF
C181 net_170#2 0 2.074fF
C182 net_93#2 0 0.754fF
C183 net_115#10 0 1.304fF
C184 net_86#2 0 0.787fF
C185 net_197#8 0 3.12fF
C186 net_102#6 0 1.161fF
C187 net_93 0 0.93fF
C188 net_126#4 0 1.128fF
C189 net_158#4 0 2.019fF
C190 net_97 0 1.502fF
C191 a7#0 0 1.161fF
C192 net_126 0 1.216fF
C193 b7#0 0 1.018fF
C194 net_158 0 1.931fF
C195 net_331#6 0 1.843fF
C196 net_282#2 0 1.018fF
C197 net_379 0 2.371fF
C198 net_244#5 0 2.14fF
C199 net_239#5 0 2.625fF
C200 net_331#10 0 1.931fF
C201 net_124#2 0 1.568fF
C202 net_172 0 2.338fF
C203 net_244#2 0 2.228fF
C204 net_112#2 0 1.425fF
C205 net_156 0 2.195fF
C206 net_124 0 1.216fF
C207 net_126#2 0 1.04fF
C208 net_158#2 0 2.019fF
C209 net_112 0 1.073fF
C210 net_97#2 0 0.754fF
C211 net_209#2 0 2.713fF
C212 net_156#2 0 1.931fF
C213 net_121 0 1.04fF
C214 net_108#2 0 1.161fF
C215 net_172#2 0 2.074fF
C216 net_97#6 0 0.754fF
C217 net_197#6 0 2.856fF
C218 net_121#2 0 1.216fF
C219 net_95#2 0 0.754fF
C220 net_115#2 0 1.304fF
C221 net_239#2 0 2.371fF
C222 net_121#4 0 1.04fF
C223 net_102 0 1.161fF
C224 net_95 0 0.93fF
C225 net_219#4 0 1.128fF
C226 net_233#4 0 1.447fF
C227 net_282 0 2.658fF
C228 a8#0 0 2.592fF
C229 net_219 0 1.216fF
C230 b8#0 0 2.305fF
C231 net_233 0 1.359fF
C232 net_191 0 0.699fF
C233 net_248 0 2.019fF
C234 net_242#2 0 2.217fF
C235 net_258#2 0 2.57fF
C236 net_318 0 2.25fF
C237 net_191#2 0 0.787fF
C238 net_219#2 0 1.04fF
C239 net_233#2 0 1.447fF
C240 net_258 0 2.217fF
C241 net_282#4 0 0.754fF
C242 net_331#8 0 2.019fF
C243 net_318#2 0 1.645fF
C244 net_264#2 0 2.272fF
C245 net_188#2 0 0.875fF
C246 net_248#4 0 2.504fF
C247 a9#0 0 2.449fF
C248 net_264 0 2.36fF
C249 b9#0 0 1.733fF
C250 net_188 0 0.787fF
C251 net_186 0 0.699fF
C252 net_225#2 0 1.447fF
C253 net_207#2 0 1.645fF
C254 net_203 0 1.425fF
C255 net_253 0 2.338fF
C256 net_186#2 0 0.787fF
C257 net_262#2 0 2.713fF
C258 net_256#2 0 2.482fF
C259 net_203#4 0 1.073fF
C260 net_264#4 0 2.184fF
C261 net_188#4 0 0.875fF
C262 net_262 0 2.36fF
C263 net_248#2 0 1.755fF
C264 net_258#4 0 2.305fF
C265 net_256 0 2.217fF
C266 net_179#6 0 0.611fF
C267 net_331#14 0 2.14fF
C268 net_253#2 0 2.074fF
C269 net_248#6 0 1.755fF
C270 net_282#6 0 3.142fF
C271 net_179#2 0 0.787fF
C272 net_213#4 0 1.128fF
C273 net_193#4 0 0.875fF
C274 net_225 0 1.931fF
C275 a10#0 0 1.876fF
C276 net_213 0 1.216fF
C277 b10#0 0 0.875fF
C278 net_193 0 0.787fF
C279 net_305 0 1.271fF
C280 net_341#2 0 2.305fF
C281 net_307#2 0 1.931fF
C282 net_366#2 0 3.571fF
C283 net_303 0 1.623fF
C284 net_305#2 0 1.359fF
C285 net_309#4 0 1.711fF
C286 net_313 0 1.766fF
C287 net_366 0 3.219fF
C288 net_213#2 0 1.04fF
C289 net_193#2 0 0.875fF
C290 net_309 0 2.801fF
C291 net_225#4 0 1.183fF
C292 net_203#2 0 1.161fF
C293 net_313#2 0 2.658fF
C294 net_301 0 1.183fF
C295 net_331#4 0 2.019fF
C296 net_303#2 0 1.359fF
C297 net_225#8 0 1.183fF
C298 net_179#4 0 0.875fF
C299 net_301#2 0 2.801fF
C300 net_368#2 0 0.699fF
C301 net_397#2 0 1.161fF
C302 net_341#7 0 2.074fF
C303 a11#0 0 0.853fF
C304 net_368#4 0 0.787fF
C305 b11#0 0 0.853fF
C306 net_397#4 0 1.073fF
C307 net_450 0 1.557fF
C308 net_422#2 0 1.447fF
C309 net_437 0 2.074fF
C310 net_344#2 0 2.57fF
C311 net_354#2 0 2.768fF
C312 net_450#2 0 2.228fF
C313 net_297 0 1.568fF
C314 net_352 0 2.768fF
C315 net_344#10 0 2.217fF
C316 net_411 0 2.162fF
C317 net_295 0 1.48fF
C318 net_297#2 0 1.216fF
C319 net_368 0 0.611fF
C320 net_397 0 1.161fF
C321 net_411#2 0 1.359fF
C322 net_341 0 4.589fF
C323 net_309#2 0 1.447fF
C324 net_295#2 0 1.216fF
C325 net_183 0 0.611fF
C326 net_203#6 0 1.161fF
C327 net_352#2 0 1.656fF
C328 net_341#4 0 2.118fF
C329 net_225#6 0 1.447fF
C330 net_183#2 0 0.787fF
C331 net_339#11 0 1.689fF
C332 net_331#17 0 1.568fF
C333 net_354 0 2.504fF
C334 net_183#4 0 0.611fF
C335 net_179 0 0.875fF
C336 net_339#2 0 2.085fF
C337 net_434 0 1.414fF
C338 net_419 0 1.447fF
C339 net_422#8 0 1.931fF
C340 a12#0 0 0.853fF
C341 net_434#4 0 1.502fF
C342 b12#0 0 0.853fF
C343 net_419#4 0 1.359fF
C344 net_415#2 0 1.271fF
C345 net_387#4 0 1.018fF
C346 net_413 0 1.931fF
C347 net_432 0 1.854fF
C348 net_417#2 0 1.623fF
C349 net_415 0 1.359fF
C350 net_447#2 0 1.997fF
C351 net_464#2 0 2.625fF
C352 net_432#2 0 1.502fF
C353 net_434#2 0 1.326fF
C354 net_419#2 0 1.447fF
C355 net_447 0 1.645fF
C356 net_422#6 0 2.691fF
C357 net_344 0 2.305fF
C358 net_464 0 1.513fF
C359 net_478#2 0 2.757fF
C360 net_331#19 0 2.305fF
C361 net_417 0 1.359fF
C362 net_422 0 1.183fF
C363 net_339#9 0 2.449fF
C364 net_478 0 2.933fF
C365 net_444 0 1.557fF
C366 net_384 0 1.018fF
C367 net_387#6 0 1.502fF
C368 a13#0 0 0.853fF
C369 net_444#4 0 1.645fF
C370 b13#0 0 0.853fF
C371 net_384#4 0 0.93fF
C372 net_373#2 0 0.699fF
C373 net_400#8 0 1.161fF
C374 net_371 0 1.359fF
C375 net_459#2 0 1.447fF
C376 net_288 0 1.194fF
C377 net_373 0 3.087fF
C378 net_391#2 0 1.282fF
C379 net_476 0 3.054fF
C380 net_459 0 2.074fF
C381 net_455 0 2.283fF
C382 net_457 0 2.338fF
C383 net_391#6 0 0.93fF
C384 net_444#2 0 1.469fF
C385 net_384#2 0 1.018fF
C386 net_455#2 0 1.931fF
C387 net_387#2 0 0.754fF
C388 net_447#4 0 1.733fF
C389 net_457#2 0 2.074fF
C390 net_324#8 0 1.469fF
C391 net_344#4 0 2.305fF
C392 net_476#2 0 1.084fF
C393 net_387 0 3.12fF
C394 net_422#4 0 2.426fF
C395 net_324#6 0 1.645fF
C396 net_286 0 0.754fF
C397 net_331 0 3.587fF
C398 net_288#2 0 0.93fF
C399 net_324#4 0 1.469fF
C400 net_339#7 0 1.425fF
C401 net_286#2 0 0.93fF
C402 net_381#2 0 0.842fF
C403 net_441#4 0 1.733fF
C404 net_400#6 0 1.645fF
C405 a14#0 0 0.853fF
C406 net_381#4 0 0.93fF
C407 b14#0 0 0.853fF
C408 net_441 0 1.645fF
C409 net_360#2 0 2.702fF
C410 net_291#4 0 1.161fF
C411 net_356 0 3.219fF
C412 net_364#2 0 3.428fF
C413 net_362#2 0 3.197fF
C414 net_360 0 2.79fF
C415 net_299#2 0 1.568fF
C416 net_320#2 0 1.909fF
C417 net_364 0 3.076fF
C418 net_473#2 0 0.875fF
C419 net_439 0 2.107fF
C420 net_299 0 1.216fF
C421 net_381 0 0.754fF
C422 net_441#2 0 1.733fF
C423 net_473#4 0 2.647fF
C424 net_400#2 0 0.897fF
C425 net_391 0 1.018fF
C426 net_439#2 0 1.502fF
C427 net_315#4 0 1.326fF
C428 net_344#8 0 2.305fF
C429 net_320 0 1.645fF
C430 net_400#4 0 2.977fF
C431 net_324#2 0 1.733fF
C432 net_315 0 1.502fF
C433 net_358#2 0 2.471fF
C434 net_331#2 0 2.019fF
C435 net_362 0 2.933fF
C436 net_315#2 0 1.326fF
C437 net_339 0 3.587fF
C438 net_358 0 2.647fF
C439 net_216#4 0 1.128fF
C440 net_230#4 0 1.447fF
C441 net_291#2 0 2.515fF
C442 a15#0 0 2.162fF
C443 net_216 0 1.216fF
C444 b15#0 0 2.019fF
C445 net_230 0 1.359fF
C446 net_322#2 0 1.997fF
C447 net_274 0 1.051fF
C448 net_276#2 0 0.787fF
C449 net_471#2 0 1.018fF
C450 net_278#2 0 1.051fF
C451 net_322 0 1.645fF
C452 net_375#2 0 1.139fF
C453 net_409 0 1.48fF
C454 net_471 0 2.504fF
C455 net_280#5 0 1.425fF
C456 net_377#2 0 1.051fF
C457 net_375 0 0.787fF
C458 net_216#2 0 1.04fF
C459 net_230#2 0 1.447fF